REMARK  Name = ../refined-set-2016/3pww/3pww_pocket.pdb
REMARK  243 active torsions:
REMARK  status: ('A' for Active; 'I' for Inactive)
REMARK    1  A    between atoms: _1  and  _3
REMARK    2  A    between atoms: _3  and  _4
REMARK    3  A    between atoms: _3  and  _6
REMARK    4  A    between atoms: _6  and  _7
REMARK    5  A    between atoms: _10  and  _12
REMARK    6  A    between atoms: _12  and  _13
REMARK    7  A    between atoms: _12  and  _15
REMARK    8  A    between atoms: _15  and  _16
REMARK    9  A    between atoms: _19  and  _21
REMARK   10  A    between atoms: _21  and  _22
REMARK   11  A    between atoms: _21  and  _24
REMARK   12  A    between atoms: _24  and  _25
REMARK   13  A    between atoms: _28  and  _30
REMARK   14  A    between atoms: _30  and  _31
REMARK   15  A    between atoms: _30  and  _33
REMARK   16  A    between atoms: _33  and  _34
REMARK   17  A    between atoms: _37  and  _39
REMARK   18  A    between atoms: _39  and  _40
REMARK   19  A    between atoms: _39  and  _42
REMARK   20  A    between atoms: _42  and  _43
REMARK   21  A    between atoms: _46  and  _48
REMARK   22  A    between atoms: _48  and  _49
REMARK   23  A    between atoms: _52  and  _54
REMARK   24  A    between atoms: _54  and  _55
REMARK   25  A    between atoms: _54  and  _57
REMARK   26  A    between atoms: _57  and  _58
REMARK   27  A    between atoms: _63  and  _64
REMARK   28  A    between atoms: _66  and  _68
REMARK   29  A    between atoms: _68  and  _69
REMARK   30  A    between atoms: _68  and  _71
REMARK   31  A    between atoms: _71  and  _72
REMARK   32  A    between atoms: _75  and  _77
REMARK   33  A    between atoms: _77  and  _78
REMARK   34  A    between atoms: _77  and  _80
REMARK   35  A    between atoms: _80  and  _81
REMARK   36  A    between atoms: _87  and  _89
REMARK   37  A    between atoms: _89  and  _90
REMARK   38  A    between atoms: _89  and  _92
REMARK   39  A    between atoms: _92  and  _93
REMARK   40  A    between atoms: _96  and  _98
REMARK   41  A    between atoms: _98  and  _99
REMARK   42  A    between atoms: _98  and  _101
REMARK   43  A    between atoms: _101  and  _102
REMARK   44  A    between atoms: _105  and  _107
REMARK   45  A    between atoms: _107  and  _108
REMARK   46  A    between atoms: _110  and  _112
REMARK   47  A    between atoms: _112  and  _113
REMARK   48  A    between atoms: _112  and  _115
REMARK   49  A    between atoms: _115  and  _116
REMARK   50  A    between atoms: _118  and  _120
REMARK   51  A    between atoms: _120  and  _121
REMARK   52  A    between atoms: _120  and  _123
REMARK   53  A    between atoms: _123  and  _124
REMARK   54  A    between atoms: _126  and  _128
REMARK   55  A    between atoms: _128  and  _129
REMARK   56  A    between atoms: _128  and  _131
REMARK   57  A    between atoms: _131  and  _132
REMARK   58  A    between atoms: _135  and  _137
REMARK   59  A    between atoms: _137  and  _138
REMARK   60  A    between atoms: _137  and  _140
REMARK   61  A    between atoms: _140  and  _141
REMARK   62  A    between atoms: _151  and  _153
REMARK   63  A    between atoms: _153  and  _154
REMARK   64  A    between atoms: _153  and  _156
REMARK   65  A    between atoms: _156  and  _157
REMARK   66  A    between atoms: _159  and  _161
REMARK   67  A    between atoms: _161  and  _162
REMARK   68  A    between atoms: _161  and  _164
REMARK   69  A    between atoms: _164  and  _165
REMARK   70  A    between atoms: _168  and  _170
REMARK   71  A    between atoms: _170  and  _171
REMARK   72  A    between atoms: _170  and  _173
REMARK   73  A    between atoms: _173  and  _174
REMARK   74  A    between atoms: _176  and  _178
REMARK   75  A    between atoms: _178  and  _179
REMARK   76  A    between atoms: _178  and  _181
REMARK   77  A    between atoms: _181  and  _182
REMARK   78  A    between atoms: _187  and  _188
REMARK   79  A    between atoms: _190  and  _192
REMARK   80  A    between atoms: _192  and  _193
REMARK   81  A    between atoms: _195  and  _197
REMARK   82  A    between atoms: _197  and  _198
REMARK   83  A    between atoms: _197  and  _200
REMARK   84  A    between atoms: _200  and  _201
REMARK   85  A    between atoms: _204  and  _206
REMARK   86  A    between atoms: _206  and  _207
REMARK   87  A    between atoms: _209  and  _211
REMARK   88  A    between atoms: _211  and  _212
REMARK   89  A    between atoms: _211  and  _214
REMARK   90  A    between atoms: _214  and  _215
REMARK   91  A    between atoms: _217  and  _219
REMARK   92  A    between atoms: _219  and  _220
REMARK   93  A    between atoms: _219  and  _222
REMARK   94  A    between atoms: _222  and  _223
REMARK   95  A    between atoms: _225  and  _227
REMARK   96  A    between atoms: _227  and  _228
REMARK   97  A    between atoms: _227  and  _230
REMARK   98  A    between atoms: _230  and  _231
REMARK   99  A    between atoms: _233  and  _235
REMARK  100  A    between atoms: _235  and  _236
REMARK  101  A    between atoms: _235  and  _238
REMARK  102  A    between atoms: _238  and  _239
REMARK  103  A    between atoms: _241  and  _243
REMARK  104  A    between atoms: _243  and  _244
REMARK  105  A    between atoms: _243  and  _246
REMARK  106  A    between atoms: _246  and  _247
REMARK  107  A    between atoms: _249  and  _251
REMARK  108  A    between atoms: _251  and  _252
REMARK  109  A    between atoms: _251  and  _254
REMARK  110  A    between atoms: _254  and  _255
REMARK  111  A    between atoms: _261  and  _263
REMARK  112  A    between atoms: _263  and  _264
REMARK  113  A    between atoms: _263  and  _266
REMARK  114  A    between atoms: _266  and  _267
REMARK  115  A    between atoms: _270  and  _272
REMARK  116  A    between atoms: _272  and  _273
REMARK  117  A    between atoms: _272  and  _275
REMARK  118  A    between atoms: _275  and  _276
REMARK  119  A    between atoms: _279  and  _281
REMARK  120  A    between atoms: _281  and  _282
REMARK  121  A    between atoms: _281  and  _284
REMARK  122  A    between atoms: _284  and  _285
REMARK  123  A    between atoms: _288  and  _290
REMARK  124  A    between atoms: _290  and  _291
REMARK  125  A    between atoms: _293  and  _295
REMARK  126  A    between atoms: _295  and  _296
REMARK  127  A    between atoms: _295  and  _298
REMARK  128  A    between atoms: _298  and  _299
REMARK  129  A    between atoms: _302  and  _304
REMARK  130  A    between atoms: _304  and  _305
REMARK  131  A    between atoms: _304  and  _307
REMARK  132  A    between atoms: _307  and  _308
REMARK  133  A    between atoms: _311  and  _313
REMARK  134  A    between atoms: _313  and  _314
REMARK  135  A    between atoms: _316  and  _318
REMARK  136  A    between atoms: _318  and  _319
REMARK  137  A    between atoms: _318  and  _321
REMARK  138  A    between atoms: _321  and  _322
REMARK  139  A    between atoms: _325  and  _327
REMARK  140  A    between atoms: _327  and  _328
REMARK  141  A    between atoms: _331  and  _333
REMARK  142  A    between atoms: _333  and  _334
REMARK  143  A    between atoms: _333  and  _336
REMARK  144  A    between atoms: _336  and  _337
REMARK  145  A    between atoms: _343  and  _345
REMARK  146  A    between atoms: _345  and  _346
REMARK  147  A    between atoms: _345  and  _348
REMARK  148  A    between atoms: _348  and  _349
REMARK  149  A    between atoms: _352  and  _354
REMARK  150  A    between atoms: _354  and  _355
REMARK  151  A    between atoms: _354  and  _357
REMARK  152  A    between atoms: _357  and  _358
REMARK  153  A    between atoms: _363  and  _365
REMARK  154  A    between atoms: _365  and  _366
REMARK  155  A    between atoms: _365  and  _368
REMARK  156  A    between atoms: _368  and  _369
REMARK  157  A    between atoms: _372  and  _374
REMARK  158  A    between atoms: _374  and  _375
REMARK  159  A    between atoms: _374  and  _377
REMARK  160  A    between atoms: _377  and  _378
REMARK  161  A    between atoms: _378  and  _379
REMARK  162  A    between atoms: _384  and  _386
REMARK  163  A    between atoms: _386  and  _387
REMARK  164  A    between atoms: _389  and  _391
REMARK  165  A    between atoms: _391  and  _392
REMARK  166  A    between atoms: _391  and  _394
REMARK  167  A    between atoms: _394  and  _395
REMARK  168  A    between atoms: _401  and  _403
REMARK  169  A    between atoms: _403  and  _404
REMARK  170  A    between atoms: _403  and  _406
REMARK  171  A    between atoms: _406  and  _407
REMARK  172  A    between atoms: _417  and  _419
REMARK  173  A    between atoms: _419  and  _420
REMARK  174  A    between atoms: _419  and  _422
REMARK  175  A    between atoms: _422  and  _423
REMARK  176  A    between atoms: _426  and  _428
REMARK  177  A    between atoms: _428  and  _429
REMARK  178  A    between atoms: _432  and  _434
REMARK  179  A    between atoms: _434  and  _435
REMARK  180  A    between atoms: _434  and  _437
REMARK  181  A    between atoms: _437  and  _438
REMARK  182  A    between atoms: _441  and  _443
REMARK  183  A    between atoms: _443  and  _444
REMARK  184  A    between atoms: _443  and  _446
REMARK  185  A    between atoms: _446  and  _447
REMARK  186  A    between atoms: _450  and  _452
REMARK  187  A    between atoms: _452  and  _453
REMARK  188  A    between atoms: _455  and  _457
REMARK  189  A    between atoms: _457  and  _458
REMARK  190  A    between atoms: _457  and  _460
REMARK  191  A    between atoms: _460  and  _461
REMARK  192  A    between atoms: _464  and  _466
REMARK  193  A    between atoms: _466  and  _467
REMARK  194  A    between atoms: _466  and  _469
REMARK  195  A    between atoms: _469  and  _470
REMARK  196  A    between atoms: _473  and  _475
REMARK  197  A    between atoms: _475  and  _476
REMARK  198  A    between atoms: _475  and  _478
REMARK  199  A    between atoms: _478  and  _479
REMARK  200  A    between atoms: _482  and  _484
REMARK  201  A    between atoms: _484  and  _485
REMARK  202  A    between atoms: _484  and  _487
REMARK  203  A    between atoms: _487  and  _488
REMARK  204  A    between atoms: _491  and  _493
REMARK  205  A    between atoms: _493  and  _494
REMARK  206  A    between atoms: _493  and  _496
REMARK  207  A    between atoms: _496  and  _497
REMARK  208  A    between atoms: _502  and  _503
REMARK  209  A    between atoms: _505  and  _507
REMARK  210  A    between atoms: _507  and  _508
REMARK  211  A    between atoms: _507  and  _510
REMARK  212  A    between atoms: _510  and  _511
REMARK  213  A    between atoms: _517  and  _519
REMARK  214  A    between atoms: _519  and  _520
REMARK  215  A    between atoms: _519  and  _522
REMARK  216  A    between atoms: _522  and  _523
REMARK  217  A    between atoms: _526  and  _528
REMARK  218  A    between atoms: _528  and  _529
REMARK  219  A    between atoms: _531  and  _533
REMARK  220  A    between atoms: _533  and  _534
REMARK  221  A    between atoms: _533  and  _536
REMARK  222  A    between atoms: _536  and  _537
REMARK  223  A    between atoms: _540  and  _542
REMARK  224  A    between atoms: _542  and  _543
REMARK  225  A    between atoms: _542  and  _545
REMARK  226  A    between atoms: _545  and  _546
REMARK  227  A    between atoms: _551  and  _553
REMARK  228  A    between atoms: _553  and  _554
REMARK  229  A    between atoms: _553  and  _556
REMARK  230  A    between atoms: _556  and  _557
REMARK  231  A    between atoms: _560  and  _562
REMARK  232  A    between atoms: _562  and  _563
REMARK  233  A    between atoms: _562  and  _565
REMARK  234  A    between atoms: _565  and  _566
REMARK  235  A    between atoms: _572  and  _574
REMARK  236  A    between atoms: _574  and  _575
REMARK  237  A    between atoms: _577  and  _579
REMARK  238  A    between atoms: _579  and  _580
REMARK  239  A    between atoms: _579  and  _582
REMARK  240  A    between atoms: _582  and  _583
REMARK  241  A    between atoms: _586  and  _588
REMARK  242  A    between atoms: _588  and  _589
REMARK  243  A    between atoms: _588  and  _591
REMARK                            x       y       z     vdW  Elec       q    Type
REMARK                         _______ _______ _______ _____ _____    ______ ____
ROOT
ATOM      1  C   ILE A   1      -6.210  -8.982   3.595  0.00  0.00    +0.238 C 
ATOM      2  O   ILE A   1      -7.118  -9.614   4.134  0.00  0.00    -0.274 OA
ATOM      3  N   ASP A   2      -6.306  -8.468   2.372  0.00  0.00    -0.298 N 
ATOM      4  H   ASP A   2      -5.486  -7.975   1.965  0.00  0.00    +0.150 HD
ENDROOT
BRANCH   1   5
ATOM      5  CA  ILE A   1      -4.902  -8.748   4.339  0.00  0.00    +0.145 C 
BRANCH   5   6
ATOM      6  N   ILE A   1      -3.814  -8.325   3.454  0.00  0.00    -0.238 NA
ATOM      7  H   ILE A   1      -3.544  -7.321   3.413  0.00  0.00    +0.142 HD
ENDBRANCH   5   6
BRANCH   5   8
ATOM      8  CB  ILE A   1      -5.169  -7.739   5.479  0.00  0.00    +0.025 C 
ATOM      9  CG2 ILE A   1      -3.949  -7.625   6.380  0.00  0.00    +0.002 C 
BRANCH   8  10
ATOM     10  CG1 ILE A   1      -5.620  -6.378   4.925  0.00  0.00    +0.002 C 
ATOM     11  CD1 ILE A   1      -6.248  -5.460   5.981  0.00  0.00    +0.000 C 
ENDBRANCH   8  10
ENDBRANCH   5   8
ENDBRANCH   1   5
BRANCH   3  12
ATOM     12  CA  ASP A   2      -7.531  -8.577   1.584  0.00  0.00    +0.148 C 
BRANCH  12  13
ATOM     13  C   ASP A   2      -7.216  -8.426   0.108  0.00  0.00    +0.227 C 
ATOM     14  O   ASP A   2      -6.047  -8.276  -0.273  0.00  0.00    -0.286 OA
ENDBRANCH  12  13
BRANCH  12  15
ATOM     15  CB  ASP A   2      -8.608  -7.578   2.052  0.00  0.00    +0.142 C 
BRANCH  15  16
ATOM     16  CG  ASP A   2      -8.187  -6.122   1.916  0.00  0.00    +0.367 C 
ATOM     17  OD2 ASP A   2      -8.766  -5.284   2.643  0.00  0.00    -0.246 OA
ATOM     18  OD1 ASP A   2      -7.307  -5.793   1.088  0.00  0.00    -0.246 OA
ENDBRANCH  15  16
ENDBRANCH  12  15
ENDBRANCH   3  12
TORSDOF 8
REMARK  Name = ../refined-set-2016/3pww/3pww_pocket.pdb
REMARK  243 active torsions:
REMARK  status: ('A' for Active; 'I' for Inactive)
REMARK    1  A    between atoms: _1  and  _3
REMARK    2  A    between atoms: _3  and  _4
REMARK    3  A    between atoms: _3  and  _6
REMARK    4  A    between atoms: _6  and  _7
REMARK    5  A    between atoms: _10  and  _12
REMARK    6  A    between atoms: _12  and  _13
REMARK    7  A    between atoms: _12  and  _15
REMARK    8  A    between atoms: _15  and  _16
REMARK    9  A    between atoms: _19  and  _21
REMARK   10  A    between atoms: _21  and  _22
REMARK   11  A    between atoms: _21  and  _24
REMARK   12  A    between atoms: _24  and  _25
REMARK   13  A    between atoms: _28  and  _30
REMARK   14  A    between atoms: _30  and  _31
REMARK   15  A    between atoms: _30  and  _33
REMARK   16  A    between atoms: _33  and  _34
REMARK   17  A    between atoms: _37  and  _39
REMARK   18  A    between atoms: _39  and  _40
REMARK   19  A    between atoms: _39  and  _42
REMARK   20  A    between atoms: _42  and  _43
REMARK   21  A    between atoms: _46  and  _48
REMARK   22  A    between atoms: _48  and  _49
REMARK   23  A    between atoms: _52  and  _54
REMARK   24  A    between atoms: _54  and  _55
REMARK   25  A    between atoms: _54  and  _57
REMARK   26  A    between atoms: _57  and  _58
REMARK   27  A    between atoms: _63  and  _64
REMARK   28  A    between atoms: _66  and  _68
REMARK   29  A    between atoms: _68  and  _69
REMARK   30  A    between atoms: _68  and  _71
REMARK   31  A    between atoms: _71  and  _72
REMARK   32  A    between atoms: _75  and  _77
REMARK   33  A    between atoms: _77  and  _78
REMARK   34  A    between atoms: _77  and  _80
REMARK   35  A    between atoms: _80  and  _81
REMARK   36  A    between atoms: _87  and  _89
REMARK   37  A    between atoms: _89  and  _90
REMARK   38  A    between atoms: _89  and  _92
REMARK   39  A    between atoms: _92  and  _93
REMARK   40  A    between atoms: _96  and  _98
REMARK   41  A    between atoms: _98  and  _99
REMARK   42  A    between atoms: _98  and  _101
REMARK   43  A    between atoms: _101  and  _102
REMARK   44  A    between atoms: _105  and  _107
REMARK   45  A    between atoms: _107  and  _108
REMARK   46  A    between atoms: _110  and  _112
REMARK   47  A    between atoms: _112  and  _113
REMARK   48  A    between atoms: _112  and  _115
REMARK   49  A    between atoms: _115  and  _116
REMARK   50  A    between atoms: _118  and  _120
REMARK   51  A    between atoms: _120  and  _121
REMARK   52  A    between atoms: _120  and  _123
REMARK   53  A    between atoms: _123  and  _124
REMARK   54  A    between atoms: _126  and  _128
REMARK   55  A    between atoms: _128  and  _129
REMARK   56  A    between atoms: _128  and  _131
REMARK   57  A    between atoms: _131  and  _132
REMARK   58  A    between atoms: _135  and  _137
REMARK   59  A    between atoms: _137  and  _138
REMARK   60  A    between atoms: _137  and  _140
REMARK   61  A    between atoms: _140  and  _141
REMARK   62  A    between atoms: _151  and  _153
REMARK   63  A    between atoms: _153  and  _154
REMARK   64  A    between atoms: _153  and  _156
REMARK   65  A    between atoms: _156  and  _157
REMARK   66  A    between atoms: _159  and  _161
REMARK   67  A    between atoms: _161  and  _162
REMARK   68  A    between atoms: _161  and  _164
REMARK   69  A    between atoms: _164  and  _165
REMARK   70  A    between atoms: _168  and  _170
REMARK   71  A    between atoms: _170  and  _171
REMARK   72  A    between atoms: _170  and  _173
REMARK   73  A    between atoms: _173  and  _174
REMARK   74  A    between atoms: _176  and  _178
REMARK   75  A    between atoms: _178  and  _179
REMARK   76  A    between atoms: _178  and  _181
REMARK   77  A    between atoms: _181  and  _182
REMARK   78  A    between atoms: _187  and  _188
REMARK   79  A    between atoms: _190  and  _192
REMARK   80  A    between atoms: _192  and  _193
REMARK   81  A    between atoms: _195  and  _197
REMARK   82  A    between atoms: _197  and  _198
REMARK   83  A    between atoms: _197  and  _200
REMARK   84  A    between atoms: _200  and  _201
REMARK   85  A    between atoms: _204  and  _206
REMARK   86  A    between atoms: _206  and  _207
REMARK   87  A    between atoms: _209  and  _211
REMARK   88  A    between atoms: _211  and  _212
REMARK   89  A    between atoms: _211  and  _214
REMARK   90  A    between atoms: _214  and  _215
REMARK   91  A    between atoms: _217  and  _219
REMARK   92  A    between atoms: _219  and  _220
REMARK   93  A    between atoms: _219  and  _222
REMARK   94  A    between atoms: _222  and  _223
REMARK   95  A    between atoms: _225  and  _227
REMARK   96  A    between atoms: _227  and  _228
REMARK   97  A    between atoms: _227  and  _230
REMARK   98  A    between atoms: _230  and  _231
REMARK   99  A    between atoms: _233  and  _235
REMARK  100  A    between atoms: _235  and  _236
REMARK  101  A    between atoms: _235  and  _238
REMARK  102  A    between atoms: _238  and  _239
REMARK  103  A    between atoms: _241  and  _243
REMARK  104  A    between atoms: _243  and  _244
REMARK  105  A    between atoms: _243  and  _246
REMARK  106  A    between atoms: _246  and  _247
REMARK  107  A    between atoms: _249  and  _251
REMARK  108  A    between atoms: _251  and  _252
REMARK  109  A    between atoms: _251  and  _254
REMARK  110  A    between atoms: _254  and  _255
REMARK  111  A    between atoms: _261  and  _263
REMARK  112  A    between atoms: _263  and  _264
REMARK  113  A    between atoms: _263  and  _266
REMARK  114  A    between atoms: _266  and  _267
REMARK  115  A    between atoms: _270  and  _272
REMARK  116  A    between atoms: _272  and  _273
REMARK  117  A    between atoms: _272  and  _275
REMARK  118  A    between atoms: _275  and  _276
REMARK  119  A    between atoms: _279  and  _281
REMARK  120  A    between atoms: _281  and  _282
REMARK  121  A    between atoms: _281  and  _284
REMARK  122  A    between atoms: _284  and  _285
REMARK  123  A    between atoms: _288  and  _290
REMARK  124  A    between atoms: _290  and  _291
REMARK  125  A    between atoms: _293  and  _295
REMARK  126  A    between atoms: _295  and  _296
REMARK  127  A    between atoms: _295  and  _298
REMARK  128  A    between atoms: _298  and  _299
REMARK  129  A    between atoms: _302  and  _304
REMARK  130  A    between atoms: _304  and  _305
REMARK  131  A    between atoms: _304  and  _307
REMARK  132  A    between atoms: _307  and  _308
REMARK  133  A    between atoms: _311  and  _313
REMARK  134  A    between atoms: _313  and  _314
REMARK  135  A    between atoms: _316  and  _318
REMARK  136  A    between atoms: _318  and  _319
REMARK  137  A    between atoms: _318  and  _321
REMARK  138  A    between atoms: _321  and  _322
REMARK  139  A    between atoms: _325  and  _327
REMARK  140  A    between atoms: _327  and  _328
REMARK  141  A    between atoms: _331  and  _333
REMARK  142  A    between atoms: _333  and  _334
REMARK  143  A    between atoms: _333  and  _336
REMARK  144  A    between atoms: _336  and  _337
REMARK  145  A    between atoms: _343  and  _345
REMARK  146  A    between atoms: _345  and  _346
REMARK  147  A    between atoms: _345  and  _348
REMARK  148  A    between atoms: _348  and  _349
REMARK  149  A    between atoms: _352  and  _354
REMARK  150  A    between atoms: _354  and  _355
REMARK  151  A    between atoms: _354  and  _357
REMARK  152  A    between atoms: _357  and  _358
REMARK  153  A    between atoms: _363  and  _365
REMARK  154  A    between atoms: _365  and  _366
REMARK  155  A    between atoms: _365  and  _368
REMARK  156  A    between atoms: _368  and  _369
REMARK  157  A    between atoms: _372  and  _374
REMARK  158  A    between atoms: _374  and  _375
REMARK  159  A    between atoms: _374  and  _377
REMARK  160  A    between atoms: _377  and  _378
REMARK  161  A    between atoms: _378  and  _379
REMARK  162  A    between atoms: _384  and  _386
REMARK  163  A    between atoms: _386  and  _387
REMARK  164  A    between atoms: _389  and  _391
REMARK  165  A    between atoms: _391  and  _392
REMARK  166  A    between atoms: _391  and  _394
REMARK  167  A    between atoms: _394  and  _395
REMARK  168  A    between atoms: _401  and  _403
REMARK  169  A    between atoms: _403  and  _404
REMARK  170  A    between atoms: _403  and  _406
REMARK  171  A    between atoms: _406  and  _407
REMARK  172  A    between atoms: _417  and  _419
REMARK  173  A    between atoms: _419  and  _420
REMARK  174  A    between atoms: _419  and  _422
REMARK  175  A    between atoms: _422  and  _423
REMARK  176  A    between atoms: _426  and  _428
REMARK  177  A    between atoms: _428  and  _429
REMARK  178  A    between atoms: _432  and  _434
REMARK  179  A    between atoms: _434  and  _435
REMARK  180  A    between atoms: _434  and  _437
REMARK  181  A    between atoms: _437  and  _438
REMARK  182  A    between atoms: _441  and  _443
REMARK  183  A    between atoms: _443  and  _444
REMARK  184  A    between atoms: _443  and  _446
REMARK  185  A    between atoms: _446  and  _447
REMARK  186  A    between atoms: _450  and  _452
REMARK  187  A    between atoms: _452  and  _453
REMARK  188  A    between atoms: _455  and  _457
REMARK  189  A    between atoms: _457  and  _458
REMARK  190  A    between atoms: _457  and  _460
REMARK  191  A    between atoms: _460  and  _461
REMARK  192  A    between atoms: _464  and  _466
REMARK  193  A    between atoms: _466  and  _467
REMARK  194  A    between atoms: _466  and  _469
REMARK  195  A    between atoms: _469  and  _470
REMARK  196  A    between atoms: _473  and  _475
REMARK  197  A    between atoms: _475  and  _476
REMARK  198  A    between atoms: _475  and  _478
REMARK  199  A    between atoms: _478  and  _479
REMARK  200  A    between atoms: _482  and  _484
REMARK  201  A    between atoms: _484  and  _485
REMARK  202  A    between atoms: _484  and  _487
REMARK  203  A    between atoms: _487  and  _488
REMARK  204  A    between atoms: _491  and  _493
REMARK  205  A    between atoms: _493  and  _494
REMARK  206  A    between atoms: _493  and  _496
REMARK  207  A    between atoms: _496  and  _497
REMARK  208  A    between atoms: _502  and  _503
REMARK  209  A    between atoms: _505  and  _507
REMARK  210  A    between atoms: _507  and  _508
REMARK  211  A    between atoms: _507  and  _510
REMARK  212  A    between atoms: _510  and  _511
REMARK  213  A    between atoms: _517  and  _519
REMARK  214  A    between atoms: _519  and  _520
REMARK  215  A    between atoms: _519  and  _522
REMARK  216  A    between atoms: _522  and  _523
REMARK  217  A    between atoms: _526  and  _528
REMARK  218  A    between atoms: _528  and  _529
REMARK  219  A    between atoms: _531  and  _533
REMARK  220  A    between atoms: _533  and  _534
REMARK  221  A    between atoms: _533  and  _536
REMARK  222  A    between atoms: _536  and  _537
REMARK  223  A    between atoms: _540  and  _542
REMARK  224  A    between atoms: _542  and  _543
REMARK  225  A    between atoms: _542  and  _545
REMARK  226  A    between atoms: _545  and  _546
REMARK  227  A    between atoms: _551  and  _553
REMARK  228  A    between atoms: _553  and  _554
REMARK  229  A    between atoms: _553  and  _556
REMARK  230  A    between atoms: _556  and  _557
REMARK  231  A    between atoms: _560  and  _562
REMARK  232  A    between atoms: _562  and  _563
REMARK  233  A    between atoms: _562  and  _565
REMARK  234  A    between atoms: _565  and  _566
REMARK  235  A    between atoms: _572  and  _574
REMARK  236  A    between atoms: _574  and  _575
REMARK  237  A    between atoms: _577  and  _579
REMARK  238  A    between atoms: _579  and  _580
REMARK  239  A    between atoms: _579  and  _582
REMARK  240  A    between atoms: _582  and  _583
REMARK  241  A    between atoms: _586  and  _588
REMARK  242  A    between atoms: _588  and  _589
REMARK  243  A    between atoms: _588  and  _591
REMARK                            x       y       z     vdW  Elec       q    Type
REMARK                         _______ _______ _______ _____ _____    ______ ____
ROOT
ATOM      1  CA  ASP A   3      -5.261  -2.606   2.025  0.00  0.00    +0.160 C 
ENDROOT
BRANCH   1   2
ATOM      2  C   ASP A   3      -4.160  -2.469   3.073  0.00  0.00    +0.241 C 
ATOM      3  O   ASP A   3      -3.880  -1.378   3.576  0.00  0.00    -0.273 OA
ATOM      4  N   ALA A   4      -3.542  -3.595   3.404  0.00  0.00    -0.297 N 
ATOM      5  H   ALA A   4      -3.878  -4.489   2.992  0.00  0.00    +0.150 HD
BRANCH   4   6
ATOM      6  CA  ALA A   4      -2.413  -3.628   4.320  0.00  0.00    +0.149 C 
ATOM      7  CB  ALA A   4      -2.858  -3.379   5.764  0.00  0.00    +0.031 C 
BRANCH   6   8
ATOM      8  C   ALA A   4      -1.764  -4.987   4.184  0.00  0.00    +0.241 C 
ATOM      9  N   TYR A   5      -0.597  -5.144   4.796  0.00  0.00    -0.298 N 
ATOM     10  H   TYR A   5      -0.210  -4.352   5.347  0.00  0.00    +0.150 HD
ATOM     11  O   ALA A   4      -2.312  -5.871   3.520  0.00  0.00    -0.273 OA
BRANCH   9  12
ATOM     12  CA  TYR A   5       0.159  -6.381   4.724  0.00  0.00    +0.141 C 
BRANCH  12  13
ATOM     13  C   TYR A   5       0.466  -6.853   6.136  0.00  0.00    +0.227 C 
ATOM     14  O   TYR A   5       0.798  -6.043   7.005  0.00  0.00    -0.286 OA
ENDBRANCH  12  13
BRANCH  12  15
ATOM     15  CB  TYR A   5       1.464  -6.165   3.947  0.00  0.00    +0.054 C 
BRANCH  15  16
ATOM     16  CG  TYR A   5       1.265  -5.763   2.510  0.00  0.00    -0.020 A 
ATOM     17  CD2 TYR A   5       0.958  -4.453   2.172  0.00  0.00    -0.001 A 
ATOM     18  CE2 TYR A   5       0.755  -4.085   0.861  0.00  0.00    +0.036 A 
ATOM     19  CZ  TYR A   5       0.888  -5.025  -0.135  0.00  0.00    +0.134 A 
ATOM     20  CE1 TYR A   5       1.197  -6.332   0.166  0.00  0.00    +0.036 A 
ATOM     21  CD1 TYR A   5       1.389  -6.694   1.494  0.00  0.00    -0.001 A 
BRANCH  19  22
ATOM     22  OH  TYR A   5       0.686  -4.626  -1.441  0.00  0.00    -0.506 OA
ATOM     23  HH  TYR A   5       0.814  -5.400  -2.045  0.00  0.00    +0.292 HD
ENDBRANCH  19  22
ENDBRANCH  15  16
ENDBRANCH  12  15
ENDBRANCH   9  12
ENDBRANCH   6   8
ENDBRANCH   4   6
ENDBRANCH   1   2
BRANCH   1  25
ATOM     24  C   ASP A   2      -3.994  -3.738   0.311  0.00  0.00    +0.241 C 
ATOM     25  N   ASP A   3      -5.033  -3.745   1.135  0.00  0.00    -0.297 N 
ATOM     26  H   ASP A   3      -5.683  -4.557   1.149  0.00  0.00    +0.150 HD
ATOM     27  O   ASP A   2      -3.184  -2.814   0.309  0.00  0.00    -0.273 OA
BRANCH  24  28
ATOM     28  CA  ASP A   2      -3.842  -4.922  -0.650  0.00  0.00    +0.160 C 
BRANCH  28  30
ATOM     29  C   LEU A   1      -5.849  -4.396  -1.946  0.00  0.00    +0.238 C 
ATOM     30  N   ASP A   2      -5.148  -5.268  -1.225  0.00  0.00    -0.297 N 
ATOM     31  H   ASP A   2      -5.536  -6.220  -1.065  0.00  0.00    +0.150 HD
ATOM     32  O   LEU A   1      -5.411  -3.297  -2.263  0.00  0.00    -0.274 OA
BRANCH  29  33
ATOM     33  CA  LEU A   1      -7.266  -4.790  -2.357  0.00  0.00    +0.145 C 
BRANCH  33  34
ATOM     34  N   LEU A   1      -7.640  -6.128  -1.919  0.00  0.00    -0.238 NA
ATOM     35  H   LEU A   1      -7.931  -6.273  -0.931  0.00  0.00    +0.142 HD
ENDBRANCH  33  34
BRANCH  33  36
ATOM     36  CB  LEU A   1      -8.248  -3.760  -1.796  0.00  0.00    +0.026 C 
BRANCH  36  37
ATOM     37  CG  LEU A   1      -9.707  -3.868  -2.233  0.00  0.00    +0.002 C 
ATOM     38  CD2 LEU A   1     -10.542  -2.857  -1.463  0.00  0.00    +0.000 C 
ATOM     39  CD1 LEU A   1      -9.834  -3.654  -3.736  0.00  0.00    +0.000 C 
ENDBRANCH  36  37
ENDBRANCH  33  36
ENDBRANCH  29  33
ENDBRANCH  28  30
BRANCH  28  40
ATOM     40  CB  ASP A   2      -2.815  -4.549  -1.730  0.00  0.00    +0.143 C 
BRANCH  40  41
ATOM     41  CG  ASP A   2      -2.470  -5.695  -2.663  0.00  0.00    +0.367 C 
ATOM     42  OD2 ASP A   2      -2.850  -6.853  -2.402  0.00  0.00    -0.246 OA
ATOM     43  OD1 ASP A   2      -1.800  -5.418  -3.682  0.00  0.00    -0.246 OA
ENDBRANCH  40  41
ENDBRANCH  28  40
ENDBRANCH  24  28
ENDBRANCH   1  25
BRANCH   1  44
ATOM     44  CB  ASP A   3      -6.624  -2.707   2.701  0.00  0.00    +0.143 C 
BRANCH  44  45
ATOM     45  CG  ASP A   3      -7.753  -2.230   1.813  0.00  0.00    +0.367 C 
ATOM     46  OD2 ASP A   3      -8.808  -2.898   1.798  0.00  0.00    -0.246 OA
ATOM     47  OD1 ASP A   3      -7.588  -1.187   1.135  0.00  0.00    -0.246 OA
ENDBRANCH  44  45
ENDBRANCH   1  44
TORSDOF 19
REMARK  Name = ../refined-set-2016/3pww/3pww_pocket.pdb
REMARK  243 active torsions:
REMARK  status: ('A' for Active; 'I' for Inactive)
REMARK    1  A    between atoms: _1  and  _3
REMARK    2  A    between atoms: _3  and  _4
REMARK    3  A    between atoms: _3  and  _6
REMARK    4  A    between atoms: _6  and  _7
REMARK    5  A    between atoms: _10  and  _12
REMARK    6  A    between atoms: _12  and  _13
REMARK    7  A    between atoms: _12  and  _15
REMARK    8  A    between atoms: _15  and  _16
REMARK    9  A    between atoms: _19  and  _21
REMARK   10  A    between atoms: _21  and  _22
REMARK   11  A    between atoms: _21  and  _24
REMARK   12  A    between atoms: _24  and  _25
REMARK   13  A    between atoms: _28  and  _30
REMARK   14  A    between atoms: _30  and  _31
REMARK   15  A    between atoms: _30  and  _33
REMARK   16  A    between atoms: _33  and  _34
REMARK   17  A    between atoms: _37  and  _39
REMARK   18  A    between atoms: _39  and  _40
REMARK   19  A    between atoms: _39  and  _42
REMARK   20  A    between atoms: _42  and  _43
REMARK   21  A    between atoms: _46  and  _48
REMARK   22  A    between atoms: _48  and  _49
REMARK   23  A    between atoms: _52  and  _54
REMARK   24  A    between atoms: _54  and  _55
REMARK   25  A    between atoms: _54  and  _57
REMARK   26  A    between atoms: _57  and  _58
REMARK   27  A    between atoms: _63  and  _64
REMARK   28  A    between atoms: _66  and  _68
REMARK   29  A    between atoms: _68  and  _69
REMARK   30  A    between atoms: _68  and  _71
REMARK   31  A    between atoms: _71  and  _72
REMARK   32  A    between atoms: _75  and  _77
REMARK   33  A    between atoms: _77  and  _78
REMARK   34  A    between atoms: _77  and  _80
REMARK   35  A    between atoms: _80  and  _81
REMARK   36  A    between atoms: _87  and  _89
REMARK   37  A    between atoms: _89  and  _90
REMARK   38  A    between atoms: _89  and  _92
REMARK   39  A    between atoms: _92  and  _93
REMARK   40  A    between atoms: _96  and  _98
REMARK   41  A    between atoms: _98  and  _99
REMARK   42  A    between atoms: _98  and  _101
REMARK   43  A    between atoms: _101  and  _102
REMARK   44  A    between atoms: _105  and  _107
REMARK   45  A    between atoms: _107  and  _108
REMARK   46  A    between atoms: _110  and  _112
REMARK   47  A    between atoms: _112  and  _113
REMARK   48  A    between atoms: _112  and  _115
REMARK   49  A    between atoms: _115  and  _116
REMARK   50  A    between atoms: _118  and  _120
REMARK   51  A    between atoms: _120  and  _121
REMARK   52  A    between atoms: _120  and  _123
REMARK   53  A    between atoms: _123  and  _124
REMARK   54  A    between atoms: _126  and  _128
REMARK   55  A    between atoms: _128  and  _129
REMARK   56  A    between atoms: _128  and  _131
REMARK   57  A    between atoms: _131  and  _132
REMARK   58  A    between atoms: _135  and  _137
REMARK   59  A    between atoms: _137  and  _138
REMARK   60  A    between atoms: _137  and  _140
REMARK   61  A    between atoms: _140  and  _141
REMARK   62  A    between atoms: _151  and  _153
REMARK   63  A    between atoms: _153  and  _154
REMARK   64  A    between atoms: _153  and  _156
REMARK   65  A    between atoms: _156  and  _157
REMARK   66  A    between atoms: _159  and  _161
REMARK   67  A    between atoms: _161  and  _162
REMARK   68  A    between atoms: _161  and  _164
REMARK   69  A    between atoms: _164  and  _165
REMARK   70  A    between atoms: _168  and  _170
REMARK   71  A    between atoms: _170  and  _171
REMARK   72  A    between atoms: _170  and  _173
REMARK   73  A    between atoms: _173  and  _174
REMARK   74  A    between atoms: _176  and  _178
REMARK   75  A    between atoms: _178  and  _179
REMARK   76  A    between atoms: _178  and  _181
REMARK   77  A    between atoms: _181  and  _182
REMARK   78  A    between atoms: _187  and  _188
REMARK   79  A    between atoms: _190  and  _192
REMARK   80  A    between atoms: _192  and  _193
REMARK   81  A    between atoms: _195  and  _197
REMARK   82  A    between atoms: _197  and  _198
REMARK   83  A    between atoms: _197  and  _200
REMARK   84  A    between atoms: _200  and  _201
REMARK   85  A    between atoms: _204  and  _206
REMARK   86  A    between atoms: _206  and  _207
REMARK   87  A    between atoms: _209  and  _211
REMARK   88  A    between atoms: _211  and  _212
REMARK   89  A    between atoms: _211  and  _214
REMARK   90  A    between atoms: _214  and  _215
REMARK   91  A    between atoms: _217  and  _219
REMARK   92  A    between atoms: _219  and  _220
REMARK   93  A    between atoms: _219  and  _222
REMARK   94  A    between atoms: _222  and  _223
REMARK   95  A    between atoms: _225  and  _227
REMARK   96  A    between atoms: _227  and  _228
REMARK   97  A    between atoms: _227  and  _230
REMARK   98  A    between atoms: _230  and  _231
REMARK   99  A    between atoms: _233  and  _235
REMARK  100  A    between atoms: _235  and  _236
REMARK  101  A    between atoms: _235  and  _238
REMARK  102  A    between atoms: _238  and  _239
REMARK  103  A    between atoms: _241  and  _243
REMARK  104  A    between atoms: _243  and  _244
REMARK  105  A    between atoms: _243  and  _246
REMARK  106  A    between atoms: _246  and  _247
REMARK  107  A    between atoms: _249  and  _251
REMARK  108  A    between atoms: _251  and  _252
REMARK  109  A    between atoms: _251  and  _254
REMARK  110  A    between atoms: _254  and  _255
REMARK  111  A    between atoms: _261  and  _263
REMARK  112  A    between atoms: _263  and  _264
REMARK  113  A    between atoms: _263  and  _266
REMARK  114  A    between atoms: _266  and  _267
REMARK  115  A    between atoms: _270  and  _272
REMARK  116  A    between atoms: _272  and  _273
REMARK  117  A    between atoms: _272  and  _275
REMARK  118  A    between atoms: _275  and  _276
REMARK  119  A    between atoms: _279  and  _281
REMARK  120  A    between atoms: _281  and  _282
REMARK  121  A    between atoms: _281  and  _284
REMARK  122  A    between atoms: _284  and  _285
REMARK  123  A    between atoms: _288  and  _290
REMARK  124  A    between atoms: _290  and  _291
REMARK  125  A    between atoms: _293  and  _295
REMARK  126  A    between atoms: _295  and  _296
REMARK  127  A    between atoms: _295  and  _298
REMARK  128  A    between atoms: _298  and  _299
REMARK  129  A    between atoms: _302  and  _304
REMARK  130  A    between atoms: _304  and  _305
REMARK  131  A    between atoms: _304  and  _307
REMARK  132  A    between atoms: _307  and  _308
REMARK  133  A    between atoms: _311  and  _313
REMARK  134  A    between atoms: _313  and  _314
REMARK  135  A    between atoms: _316  and  _318
REMARK  136  A    between atoms: _318  and  _319
REMARK  137  A    between atoms: _318  and  _321
REMARK  138  A    between atoms: _321  and  _322
REMARK  139  A    between atoms: _325  and  _327
REMARK  140  A    between atoms: _327  and  _328
REMARK  141  A    between atoms: _331  and  _333
REMARK  142  A    between atoms: _333  and  _334
REMARK  143  A    between atoms: _333  and  _336
REMARK  144  A    between atoms: _336  and  _337
REMARK  145  A    between atoms: _343  and  _345
REMARK  146  A    between atoms: _345  and  _346
REMARK  147  A    between atoms: _345  and  _348
REMARK  148  A    between atoms: _348  and  _349
REMARK  149  A    between atoms: _352  and  _354
REMARK  150  A    between atoms: _354  and  _355
REMARK  151  A    between atoms: _354  and  _357
REMARK  152  A    between atoms: _357  and  _358
REMARK  153  A    between atoms: _363  and  _365
REMARK  154  A    between atoms: _365  and  _366
REMARK  155  A    between atoms: _365  and  _368
REMARK  156  A    between atoms: _368  and  _369
REMARK  157  A    between atoms: _372  and  _374
REMARK  158  A    between atoms: _374  and  _375
REMARK  159  A    between atoms: _374  and  _377
REMARK  160  A    between atoms: _377  and  _378
REMARK  161  A    between atoms: _378  and  _379
REMARK  162  A    between atoms: _384  and  _386
REMARK  163  A    between atoms: _386  and  _387
REMARK  164  A    between atoms: _389  and  _391
REMARK  165  A    between atoms: _391  and  _392
REMARK  166  A    between atoms: _391  and  _394
REMARK  167  A    between atoms: _394  and  _395
REMARK  168  A    between atoms: _401  and  _403
REMARK  169  A    between atoms: _403  and  _404
REMARK  170  A    between atoms: _403  and  _406
REMARK  171  A    between atoms: _406  and  _407
REMARK  172  A    between atoms: _417  and  _419
REMARK  173  A    between atoms: _419  and  _420
REMARK  174  A    between atoms: _419  and  _422
REMARK  175  A    between atoms: _422  and  _423
REMARK  176  A    between atoms: _426  and  _428
REMARK  177  A    between atoms: _428  and  _429
REMARK  178  A    between atoms: _432  and  _434
REMARK  179  A    between atoms: _434  and  _435
REMARK  180  A    between atoms: _434  and  _437
REMARK  181  A    between atoms: _437  and  _438
REMARK  182  A    between atoms: _441  and  _443
REMARK  183  A    between atoms: _443  and  _444
REMARK  184  A    between atoms: _443  and  _446
REMARK  185  A    between atoms: _446  and  _447
REMARK  186  A    between atoms: _450  and  _452
REMARK  187  A    between atoms: _452  and  _453
REMARK  188  A    between atoms: _455  and  _457
REMARK  189  A    between atoms: _457  and  _458
REMARK  190  A    between atoms: _457  and  _460
REMARK  191  A    between atoms: _460  and  _461
REMARK  192  A    between atoms: _464  and  _466
REMARK  193  A    between atoms: _466  and  _467
REMARK  194  A    between atoms: _466  and  _469
REMARK  195  A    between atoms: _469  and  _470
REMARK  196  A    between atoms: _473  and  _475
REMARK  197  A    between atoms: _475  and  _476
REMARK  198  A    between atoms: _475  and  _478
REMARK  199  A    between atoms: _478  and  _479
REMARK  200  A    between atoms: _482  and  _484
REMARK  201  A    between atoms: _484  and  _485
REMARK  202  A    between atoms: _484  and  _487
REMARK  203  A    between atoms: _487  and  _488
REMARK  204  A    between atoms: _491  and  _493
REMARK  205  A    between atoms: _493  and  _494
REMARK  206  A    between atoms: _493  and  _496
REMARK  207  A    between atoms: _496  and  _497
REMARK  208  A    between atoms: _502  and  _503
REMARK  209  A    between atoms: _505  and  _507
REMARK  210  A    between atoms: _507  and  _508
REMARK  211  A    between atoms: _507  and  _510
REMARK  212  A    between atoms: _510  and  _511
REMARK  213  A    between atoms: _517  and  _519
REMARK  214  A    between atoms: _519  and  _520
REMARK  215  A    between atoms: _519  and  _522
REMARK  216  A    between atoms: _522  and  _523
REMARK  217  A    between atoms: _526  and  _528
REMARK  218  A    between atoms: _528  and  _529
REMARK  219  A    between atoms: _531  and  _533
REMARK  220  A    between atoms: _533  and  _534
REMARK  221  A    between atoms: _533  and  _536
REMARK  222  A    between atoms: _536  and  _537
REMARK  223  A    between atoms: _540  and  _542
REMARK  224  A    between atoms: _542  and  _543
REMARK  225  A    between atoms: _542  and  _545
REMARK  226  A    between atoms: _545  and  _546
REMARK  227  A    between atoms: _551  and  _553
REMARK  228  A    between atoms: _553  and  _554
REMARK  229  A    between atoms: _553  and  _556
REMARK  230  A    between atoms: _556  and  _557
REMARK  231  A    between atoms: _560  and  _562
REMARK  232  A    between atoms: _562  and  _563
REMARK  233  A    between atoms: _562  and  _565
REMARK  234  A    between atoms: _565  and  _566
REMARK  235  A    between atoms: _572  and  _574
REMARK  236  A    between atoms: _574  and  _575
REMARK  237  A    between atoms: _577  and  _579
REMARK  238  A    between atoms: _579  and  _580
REMARK  239  A    between atoms: _579  and  _582
REMARK  240  A    between atoms: _582  and  _583
REMARK  241  A    between atoms: _586  and  _588
REMARK  242  A    between atoms: _588  and  _589
REMARK  243  A    between atoms: _588  and  _591
REMARK                            x       y       z     vdW  Elec       q    Type
REMARK                         _______ _______ _______ _____ _____    ______ ____
ROOT
ATOM      1  CA  THR A   4       8.010   2.105   8.620  0.00  0.00    +0.176 C 
ENDROOT
BRANCH   1   4
ATOM      2  C   ASP A   3       6.288   0.871   9.784  0.00  0.00    +0.241 C 
ATOM      3  O   ASP A   3       6.737   1.238  10.865  0.00  0.00    -0.273 OA
ATOM      4  N   THR A   4       6.831   1.249   8.629  0.00  0.00    -0.295 N 
ATOM      5  H   THR A   4       6.413   0.933   7.731  0.00  0.00    +0.150 HD
BRANCH   2   6
ATOM      6  CA  ASP A   3       5.054  -0.023   9.722  0.00  0.00    +0.160 C 
BRANCH   6   8
ATOM      7  C   PHE A   2       5.059  -2.383   9.146  0.00  0.00    +0.241 C 
ATOM      8  N   ASP A   3       5.377  -1.412   9.991  0.00  0.00    -0.297 N 
ATOM      9  H   ASP A   3       5.873  -1.653  10.873  0.00  0.00    +0.150 HD
ATOM     10  O   PHE A   2       4.670  -2.171   7.985  0.00  0.00    -0.273 OA
BRANCH   7  11
ATOM     11  CA  PHE A   2       5.191  -3.805   9.682  0.00  0.00    +0.153 C 
BRANCH  11  14
ATOM     12  C   ASP A   1       2.901  -4.138  10.474  0.00  0.00    +0.239 C 
ATOM     13  O   ASP A   1       3.046  -3.319  11.389  0.00  0.00    -0.274 OA
ATOM     14  N   PHE A   2       3.879  -4.449   9.627  0.00  0.00    -0.297 N 
ATOM     15  H   PHE A   2       3.705  -5.174   8.902  0.00  0.00    +0.150 HD
BRANCH  12  16
ATOM     16  CA  ASP A   1       1.573  -4.874  10.282  0.00  0.00    +0.156 C 
BRANCH  16  17
ATOM     17  N   ASP A   1       1.410  -5.801  11.386  0.00  0.00    -0.238 NA
ATOM     18  H   ASP A   1       0.926  -5.475  12.247  0.00  0.00    +0.142 HD
ENDBRANCH  16  17
BRANCH  16  19
ATOM     19  CB  ASP A   1       0.377  -3.918  10.293  0.00  0.00    +0.140 C 
BRANCH  19  20
ATOM     20  CG  ASP A   1       0.311  -3.016   9.096  0.00  0.00    +0.367 C 
ATOM     21  OD2 ASP A   1      -0.804  -2.482   8.875  0.00  0.00    -0.246 OA
ATOM     22  OD1 ASP A   1       1.316  -2.828   8.388  0.00  0.00    -0.246 OA
ENDBRANCH  19  20
ENDBRANCH  16  19
ENDBRANCH  12  16
ENDBRANCH  11  14
BRANCH  11  23
ATOM     23  CB  PHE A   2       6.213  -4.579   8.852  0.00  0.00    +0.055 C 
BRANCH  23  24
ATOM     24  CG  PHE A   2       6.738  -5.831   9.510  0.00  0.00    -0.020 A 
ATOM     25  CD2 PHE A   2       6.026  -6.506  10.500  0.00  0.00    -0.004 A 
ATOM     26  CE2 PHE A   2       6.544  -7.667  11.080  0.00  0.00    -0.000 A 
ATOM     27  CZ  PHE A   2       7.785  -8.144  10.674  0.00  0.00    -0.000 A 
ATOM     28  CE1 PHE A   2       8.488  -7.481   9.690  0.00  0.00    -0.000 A 
ATOM     29  CD1 PHE A   2       7.969  -6.330   9.121  0.00  0.00    -0.004 A 
ENDBRANCH  23  24
ENDBRANCH  11  23
ENDBRANCH   7  11
ENDBRANCH   6   8
BRANCH   6  30
ATOM     30  CB  ASP A   3       4.011   0.453  10.735  0.00  0.00    +0.143 C 
BRANCH  30  31
ATOM     31  CG  ASP A   3       3.640   1.900  10.552  0.00  0.00    +0.367 C 
ATOM     32  OD2 ASP A   3       3.062   2.477  11.500  0.00  0.00    -0.246 OA
ATOM     33  OD1 ASP A   3       3.926   2.443   9.463  0.00  0.00    -0.246 OA
ENDBRANCH  30  31
ENDBRANCH   6  30
ENDBRANCH   2   6
ENDBRANCH   1   4
BRANCH   1  34
ATOM     34  C   THR A   4       7.668   3.549   8.971  0.00  0.00    +0.243 C 
ATOM     35  N   GLY A   5       6.393   3.816   9.248  0.00  0.00    -0.295 N 
ATOM     36  H   GLY A   5       5.681   3.068   9.127  0.00  0.00    +0.150 HD
ATOM     37  O   THR A   4       8.562   4.400   9.000  0.00  0.00    -0.273 OA
BRANCH  35  38
ATOM     38  CA  GLY A   5       5.971   5.124   9.714  0.00  0.00    +0.176 C 
BRANCH  38  39
ATOM     39  C   GLY A   5       5.823   5.301  11.219  0.00  0.00    +0.243 C 
ATOM     40  N   SER A   6       6.064   4.259  12.009  0.00  0.00    -0.295 N 
ATOM     41  H   SER A   6       6.348   3.351  11.589  0.00  0.00    +0.150 HD
ATOM     42  O   GLY A   5       5.498   6.398  11.663  0.00  0.00    -0.273 OA
BRANCH  40  43
ATOM     43  CA  SER A   6       5.934   4.374  13.460  0.00  0.00    +0.178 C 
BRANCH  43  44
ATOM     44  C   SER A   6       6.962   3.487  14.133  0.00  0.00    +0.243 C 
ATOM     45  N   SER A   7       7.044   3.554  15.460  0.00  0.00    -0.295 N 
ATOM     46  H   SER A   7       6.281   4.009  16.001  0.00  0.00    +0.150 HD
ATOM     47  O   SER A   6       7.665   2.750  13.462  0.00  0.00    -0.273 OA
BRANCH  45  48
ATOM     48  CA  SER A   7       8.196   2.994  16.162  0.00  0.00    +0.178 C 
BRANCH  48  49
ATOM     49  C   SER A   7       7.835   2.210  17.414  0.00  0.00    +0.243 C 
ATOM     50  O   SER A   7       8.679   2.026  18.299  0.00  0.00    -0.273 OA
ATOM     51  N   ASP A   8       6.594   1.737  17.467  0.00  0.00    -0.297 N 
ATOM     52  H   ASP A   8       5.940   1.968  16.692  0.00  0.00    +0.150 HD
BRANCH  51  53
ATOM     53  CA  ASP A   8       6.110   0.908  18.564  0.00  0.00    +0.148 C 
BRANCH  53  54
ATOM     54  C   ASP A   8       5.785  -0.488  18.038  0.00  0.00    +0.227 C 
ATOM     55  O   ASP A   8       5.171  -0.628  16.971  0.00  0.00    -0.286 OA
ENDBRANCH  53  54
BRANCH  53  56
ATOM     56  CB  ASP A   8       4.848   1.521  19.206  0.00  0.00    +0.142 C 
BRANCH  56  57
ATOM     57  CG  ASP A   8       5.140   2.758  20.052  0.00  0.00    +0.367 C 
ATOM     58  OD2 ASP A   8       4.667   2.807  21.206  0.00  0.00    -0.246 OA
ATOM     59  OD1 ASP A   8       5.835   3.674  19.569  0.00  0.00    -0.246 OA
ENDBRANCH  56  57
ENDBRANCH  53  56
ENDBRANCH  51  53
ENDBRANCH  48  49
BRANCH  48  60
ATOM     60  CB  SER A   7       9.217   4.095  16.460  0.00  0.00    +0.166 C 
BRANCH  60  61
ATOM     61  OG  SER A   7       9.506   4.794  15.259  0.00  0.00    -0.380 OA
ATOM     62  H   SER A   7      10.166   5.508  15.445  0.00  0.00    +0.211 HD
ENDBRANCH  60  61
ENDBRANCH  48  60
ENDBRANCH  45  48
ENDBRANCH  43  44
BRANCH  43  63
ATOM     63  CB  SER A   6       4.515   4.023  13.914  0.00  0.00    +0.166 C 
BRANCH  63  64
ATOM     64  OG  SER A   6       4.262   2.635  13.763  0.00  0.00    -0.380 OA
ATOM     65  H   SER A   6       4.363   2.384  12.811  0.00  0.00    +0.211 HD
ENDBRANCH  63  64
ENDBRANCH  43  63
ENDBRANCH  40  43
ENDBRANCH  38  39
ENDBRANCH  35  38
ENDBRANCH   1  34
BRANCH   1  66
ATOM     66  CB  THR A   4       8.774   2.054   7.289  0.00  0.00    +0.137 C 
ATOM     67  CG2 THR A   4       9.226   0.639   6.970  0.00  0.00    +0.034 C 
BRANCH  66  68
ATOM     68  OG1 THR A   4       7.928   2.535   6.236  0.00  0.00    -0.382 OA
ATOM     69  HG1 THR A   4       7.661   3.469   6.429  0.00  0.00    +0.210 HD
ENDBRANCH  66  68
ENDBRANCH   1  66
TORSDOF 30
REMARK  Name = ../refined-set-2016/3pww/3pww_pocket.pdb
REMARK  243 active torsions:
REMARK  status: ('A' for Active; 'I' for Inactive)
REMARK    1  A    between atoms: _1  and  _3
REMARK    2  A    between atoms: _3  and  _4
REMARK    3  A    between atoms: _3  and  _6
REMARK    4  A    between atoms: _6  and  _7
REMARK    5  A    between atoms: _10  and  _12
REMARK    6  A    between atoms: _12  and  _13
REMARK    7  A    between atoms: _12  and  _15
REMARK    8  A    between atoms: _15  and  _16
REMARK    9  A    between atoms: _19  and  _21
REMARK   10  A    between atoms: _21  and  _22
REMARK   11  A    between atoms: _21  and  _24
REMARK   12  A    between atoms: _24  and  _25
REMARK   13  A    between atoms: _28  and  _30
REMARK   14  A    between atoms: _30  and  _31
REMARK   15  A    between atoms: _30  and  _33
REMARK   16  A    between atoms: _33  and  _34
REMARK   17  A    between atoms: _37  and  _39
REMARK   18  A    between atoms: _39  and  _40
REMARK   19  A    between atoms: _39  and  _42
REMARK   20  A    between atoms: _42  and  _43
REMARK   21  A    between atoms: _46  and  _48
REMARK   22  A    between atoms: _48  and  _49
REMARK   23  A    between atoms: _52  and  _54
REMARK   24  A    between atoms: _54  and  _55
REMARK   25  A    between atoms: _54  and  _57
REMARK   26  A    between atoms: _57  and  _58
REMARK   27  A    between atoms: _63  and  _64
REMARK   28  A    between atoms: _66  and  _68
REMARK   29  A    between atoms: _68  and  _69
REMARK   30  A    between atoms: _68  and  _71
REMARK   31  A    between atoms: _71  and  _72
REMARK   32  A    between atoms: _75  and  _77
REMARK   33  A    between atoms: _77  and  _78
REMARK   34  A    between atoms: _77  and  _80
REMARK   35  A    between atoms: _80  and  _81
REMARK   36  A    between atoms: _87  and  _89
REMARK   37  A    between atoms: _89  and  _90
REMARK   38  A    between atoms: _89  and  _92
REMARK   39  A    between atoms: _92  and  _93
REMARK   40  A    between atoms: _96  and  _98
REMARK   41  A    between atoms: _98  and  _99
REMARK   42  A    between atoms: _98  and  _101
REMARK   43  A    between atoms: _101  and  _102
REMARK   44  A    between atoms: _105  and  _107
REMARK   45  A    between atoms: _107  and  _108
REMARK   46  A    between atoms: _110  and  _112
REMARK   47  A    between atoms: _112  and  _113
REMARK   48  A    between atoms: _112  and  _115
REMARK   49  A    between atoms: _115  and  _116
REMARK   50  A    between atoms: _118  and  _120
REMARK   51  A    between atoms: _120  and  _121
REMARK   52  A    between atoms: _120  and  _123
REMARK   53  A    between atoms: _123  and  _124
REMARK   54  A    between atoms: _126  and  _128
REMARK   55  A    between atoms: _128  and  _129
REMARK   56  A    between atoms: _128  and  _131
REMARK   57  A    between atoms: _131  and  _132
REMARK   58  A    between atoms: _135  and  _137
REMARK   59  A    between atoms: _137  and  _138
REMARK   60  A    between atoms: _137  and  _140
REMARK   61  A    between atoms: _140  and  _141
REMARK   62  A    between atoms: _151  and  _153
REMARK   63  A    between atoms: _153  and  _154
REMARK   64  A    between atoms: _153  and  _156
REMARK   65  A    between atoms: _156  and  _157
REMARK   66  A    between atoms: _159  and  _161
REMARK   67  A    between atoms: _161  and  _162
REMARK   68  A    between atoms: _161  and  _164
REMARK   69  A    between atoms: _164  and  _165
REMARK   70  A    between atoms: _168  and  _170
REMARK   71  A    between atoms: _170  and  _171
REMARK   72  A    between atoms: _170  and  _173
REMARK   73  A    between atoms: _173  and  _174
REMARK   74  A    between atoms: _176  and  _178
REMARK   75  A    between atoms: _178  and  _179
REMARK   76  A    between atoms: _178  and  _181
REMARK   77  A    between atoms: _181  and  _182
REMARK   78  A    between atoms: _187  and  _188
REMARK   79  A    between atoms: _190  and  _192
REMARK   80  A    between atoms: _192  and  _193
REMARK   81  A    between atoms: _195  and  _197
REMARK   82  A    between atoms: _197  and  _198
REMARK   83  A    between atoms: _197  and  _200
REMARK   84  A    between atoms: _200  and  _201
REMARK   85  A    between atoms: _204  and  _206
REMARK   86  A    between atoms: _206  and  _207
REMARK   87  A    between atoms: _209  and  _211
REMARK   88  A    between atoms: _211  and  _212
REMARK   89  A    between atoms: _211  and  _214
REMARK   90  A    between atoms: _214  and  _215
REMARK   91  A    between atoms: _217  and  _219
REMARK   92  A    between atoms: _219  and  _220
REMARK   93  A    between atoms: _219  and  _222
REMARK   94  A    between atoms: _222  and  _223
REMARK   95  A    between atoms: _225  and  _227
REMARK   96  A    between atoms: _227  and  _228
REMARK   97  A    between atoms: _227  and  _230
REMARK   98  A    between atoms: _230  and  _231
REMARK   99  A    between atoms: _233  and  _235
REMARK  100  A    between atoms: _235  and  _236
REMARK  101  A    between atoms: _235  and  _238
REMARK  102  A    between atoms: _238  and  _239
REMARK  103  A    between atoms: _241  and  _243
REMARK  104  A    between atoms: _243  and  _244
REMARK  105  A    between atoms: _243  and  _246
REMARK  106  A    between atoms: _246  and  _247
REMARK  107  A    between atoms: _249  and  _251
REMARK  108  A    between atoms: _251  and  _252
REMARK  109  A    between atoms: _251  and  _254
REMARK  110  A    between atoms: _254  and  _255
REMARK  111  A    between atoms: _261  and  _263
REMARK  112  A    between atoms: _263  and  _264
REMARK  113  A    between atoms: _263  and  _266
REMARK  114  A    between atoms: _266  and  _267
REMARK  115  A    between atoms: _270  and  _272
REMARK  116  A    between atoms: _272  and  _273
REMARK  117  A    between atoms: _272  and  _275
REMARK  118  A    between atoms: _275  and  _276
REMARK  119  A    between atoms: _279  and  _281
REMARK  120  A    between atoms: _281  and  _282
REMARK  121  A    between atoms: _281  and  _284
REMARK  122  A    between atoms: _284  and  _285
REMARK  123  A    between atoms: _288  and  _290
REMARK  124  A    between atoms: _290  and  _291
REMARK  125  A    between atoms: _293  and  _295
REMARK  126  A    between atoms: _295  and  _296
REMARK  127  A    between atoms: _295  and  _298
REMARK  128  A    between atoms: _298  and  _299
REMARK  129  A    between atoms: _302  and  _304
REMARK  130  A    between atoms: _304  and  _305
REMARK  131  A    between atoms: _304  and  _307
REMARK  132  A    between atoms: _307  and  _308
REMARK  133  A    between atoms: _311  and  _313
REMARK  134  A    between atoms: _313  and  _314
REMARK  135  A    between atoms: _316  and  _318
REMARK  136  A    between atoms: _318  and  _319
REMARK  137  A    between atoms: _318  and  _321
REMARK  138  A    between atoms: _321  and  _322
REMARK  139  A    between atoms: _325  and  _327
REMARK  140  A    between atoms: _327  and  _328
REMARK  141  A    between atoms: _331  and  _333
REMARK  142  A    between atoms: _333  and  _334
REMARK  143  A    between atoms: _333  and  _336
REMARK  144  A    between atoms: _336  and  _337
REMARK  145  A    between atoms: _343  and  _345
REMARK  146  A    between atoms: _345  and  _346
REMARK  147  A    between atoms: _345  and  _348
REMARK  148  A    between atoms: _348  and  _349
REMARK  149  A    between atoms: _352  and  _354
REMARK  150  A    between atoms: _354  and  _355
REMARK  151  A    between atoms: _354  and  _357
REMARK  152  A    between atoms: _357  and  _358
REMARK  153  A    between atoms: _363  and  _365
REMARK  154  A    between atoms: _365  and  _366
REMARK  155  A    between atoms: _365  and  _368
REMARK  156  A    between atoms: _368  and  _369
REMARK  157  A    between atoms: _372  and  _374
REMARK  158  A    between atoms: _374  and  _375
REMARK  159  A    between atoms: _374  and  _377
REMARK  160  A    between atoms: _377  and  _378
REMARK  161  A    between atoms: _378  and  _379
REMARK  162  A    between atoms: _384  and  _386
REMARK  163  A    between atoms: _386  and  _387
REMARK  164  A    between atoms: _389  and  _391
REMARK  165  A    between atoms: _391  and  _392
REMARK  166  A    between atoms: _391  and  _394
REMARK  167  A    between atoms: _394  and  _395
REMARK  168  A    between atoms: _401  and  _403
REMARK  169  A    between atoms: _403  and  _404
REMARK  170  A    between atoms: _403  and  _406
REMARK  171  A    between atoms: _406  and  _407
REMARK  172  A    between atoms: _417  and  _419
REMARK  173  A    between atoms: _419  and  _420
REMARK  174  A    between atoms: _419  and  _422
REMARK  175  A    between atoms: _422  and  _423
REMARK  176  A    between atoms: _426  and  _428
REMARK  177  A    between atoms: _428  and  _429
REMARK  178  A    between atoms: _432  and  _434
REMARK  179  A    between atoms: _434  and  _435
REMARK  180  A    between atoms: _434  and  _437
REMARK  181  A    between atoms: _437  and  _438
REMARK  182  A    between atoms: _441  and  _443
REMARK  183  A    between atoms: _443  and  _444
REMARK  184  A    between atoms: _443  and  _446
REMARK  185  A    between atoms: _446  and  _447
REMARK  186  A    between atoms: _450  and  _452
REMARK  187  A    between atoms: _452  and  _453
REMARK  188  A    between atoms: _455  and  _457
REMARK  189  A    between atoms: _457  and  _458
REMARK  190  A    between atoms: _457  and  _460
REMARK  191  A    between atoms: _460  and  _461
REMARK  192  A    between atoms: _464  and  _466
REMARK  193  A    between atoms: _466  and  _467
REMARK  194  A    between atoms: _466  and  _469
REMARK  195  A    between atoms: _469  and  _470
REMARK  196  A    between atoms: _473  and  _475
REMARK  197  A    between atoms: _475  and  _476
REMARK  198  A    between atoms: _475  and  _478
REMARK  199  A    between atoms: _478  and  _479
REMARK  200  A    between atoms: _482  and  _484
REMARK  201  A    between atoms: _484  and  _485
REMARK  202  A    between atoms: _484  and  _487
REMARK  203  A    between atoms: _487  and  _488
REMARK  204  A    between atoms: _491  and  _493
REMARK  205  A    between atoms: _493  and  _494
REMARK  206  A    between atoms: _493  and  _496
REMARK  207  A    between atoms: _496  and  _497
REMARK  208  A    between atoms: _502  and  _503
REMARK  209  A    between atoms: _505  and  _507
REMARK  210  A    between atoms: _507  and  _508
REMARK  211  A    between atoms: _507  and  _510
REMARK  212  A    between atoms: _510  and  _511
REMARK  213  A    between atoms: _517  and  _519
REMARK  214  A    between atoms: _519  and  _520
REMARK  215  A    between atoms: _519  and  _522
REMARK  216  A    between atoms: _522  and  _523
REMARK  217  A    between atoms: _526  and  _528
REMARK  218  A    between atoms: _528  and  _529
REMARK  219  A    between atoms: _531  and  _533
REMARK  220  A    between atoms: _533  and  _534
REMARK  221  A    between atoms: _533  and  _536
REMARK  222  A    between atoms: _536  and  _537
REMARK  223  A    between atoms: _540  and  _542
REMARK  224  A    between atoms: _542  and  _543
REMARK  225  A    between atoms: _542  and  _545
REMARK  226  A    between atoms: _545  and  _546
REMARK  227  A    between atoms: _551  and  _553
REMARK  228  A    between atoms: _553  and  _554
REMARK  229  A    between atoms: _553  and  _556
REMARK  230  A    between atoms: _556  and  _557
REMARK  231  A    between atoms: _560  and  _562
REMARK  232  A    between atoms: _562  and  _563
REMARK  233  A    between atoms: _562  and  _565
REMARK  234  A    between atoms: _565  and  _566
REMARK  235  A    between atoms: _572  and  _574
REMARK  236  A    between atoms: _574  and  _575
REMARK  237  A    between atoms: _577  and  _579
REMARK  238  A    between atoms: _579  and  _580
REMARK  239  A    between atoms: _579  and  _582
REMARK  240  A    between atoms: _582  and  _583
REMARK  241  A    between atoms: _586  and  _588
REMARK  242  A    between atoms: _588  and  _589
REMARK  243  A    between atoms: _588  and  _591
REMARK                            x       y       z     vdW  Elec       q    Type
REMARK                         _______ _______ _______ _____ _____    ______ ____
ROOT
ATOM      1  CG  TRP A   1       0.659  -1.632  19.276  0.00  0.00    -0.002 A 
ATOM      2  CD2 TRP A   1      -0.687  -2.062  19.016  0.00  0.00    +0.013 A 
ATOM      3  CE3 TRP A   1      -1.542  -3.000  19.610  0.00  0.00    +0.001 A 
ATOM      4  CZ3 TRP A   1      -2.808  -3.168  19.087  0.00  0.00    +0.000 A 
ATOM      5  CH2 TRP A   1      -3.238  -2.420  17.987  0.00  0.00    +0.001 A 
ATOM      6  CZ2 TRP A   1      -2.432  -1.493  17.388  0.00  0.00    +0.017 A 
ATOM      7  CE2 TRP A   1      -1.153  -1.324  17.911  0.00  0.00    +0.056 A 
ATOM      8  NE1 TRP A   1      -0.144  -0.479  17.526  0.00  0.00    -0.352 N 
ATOM      9  HE1 TRP A   1      -0.190   0.197  16.737  0.00  0.00    +0.166 HD
ATOM     10  CD1 TRP A   1       0.936  -0.670  18.350  0.00  0.00    +0.068 A 
ENDROOT
BRANCH   1  11
ATOM     11  CB  TRP A   1       1.572  -2.117  20.378  0.00  0.00    +0.053 C 
BRANCH  11  12
ATOM     12  CA  TRP A   1       2.358  -3.403  20.081  0.00  0.00    +0.137 C 
BRANCH  12  13
ATOM     13  N   TRP A   1       3.456  -3.179  19.145  0.00  0.00    -0.239 NA
ATOM     14  H   TRP A   1       3.247  -3.027  18.137  0.00  0.00    +0.142 HD
ENDBRANCH  12  13
BRANCH  12  15
ATOM     15  C   TRP A   1       1.455  -4.510  19.566  0.00  0.00    +0.224 C 
ATOM     16  O   TRP A   1       1.359  -4.750  18.350  0.00  0.00    -0.287 OA
ENDBRANCH  12  15
ENDBRANCH  11  12
ENDBRANCH   1  11
TORSDOF 4
REMARK  Name = ../refined-set-2016/3pww/3pww_pocket.pdb
REMARK  243 active torsions:
REMARK  status: ('A' for Active; 'I' for Inactive)
REMARK    1  A    between atoms: _1  and  _3
REMARK    2  A    between atoms: _3  and  _4
REMARK    3  A    between atoms: _3  and  _6
REMARK    4  A    between atoms: _6  and  _7
REMARK    5  A    between atoms: _10  and  _12
REMARK    6  A    between atoms: _12  and  _13
REMARK    7  A    between atoms: _12  and  _15
REMARK    8  A    between atoms: _15  and  _16
REMARK    9  A    between atoms: _19  and  _21
REMARK   10  A    between atoms: _21  and  _22
REMARK   11  A    between atoms: _21  and  _24
REMARK   12  A    between atoms: _24  and  _25
REMARK   13  A    between atoms: _28  and  _30
REMARK   14  A    between atoms: _30  and  _31
REMARK   15  A    between atoms: _30  and  _33
REMARK   16  A    between atoms: _33  and  _34
REMARK   17  A    between atoms: _37  and  _39
REMARK   18  A    between atoms: _39  and  _40
REMARK   19  A    between atoms: _39  and  _42
REMARK   20  A    between atoms: _42  and  _43
REMARK   21  A    between atoms: _46  and  _48
REMARK   22  A    between atoms: _48  and  _49
REMARK   23  A    between atoms: _52  and  _54
REMARK   24  A    between atoms: _54  and  _55
REMARK   25  A    between atoms: _54  and  _57
REMARK   26  A    between atoms: _57  and  _58
REMARK   27  A    between atoms: _63  and  _64
REMARK   28  A    between atoms: _66  and  _68
REMARK   29  A    between atoms: _68  and  _69
REMARK   30  A    between atoms: _68  and  _71
REMARK   31  A    between atoms: _71  and  _72
REMARK   32  A    between atoms: _75  and  _77
REMARK   33  A    between atoms: _77  and  _78
REMARK   34  A    between atoms: _77  and  _80
REMARK   35  A    between atoms: _80  and  _81
REMARK   36  A    between atoms: _87  and  _89
REMARK   37  A    between atoms: _89  and  _90
REMARK   38  A    between atoms: _89  and  _92
REMARK   39  A    between atoms: _92  and  _93
REMARK   40  A    between atoms: _96  and  _98
REMARK   41  A    between atoms: _98  and  _99
REMARK   42  A    between atoms: _98  and  _101
REMARK   43  A    between atoms: _101  and  _102
REMARK   44  A    between atoms: _105  and  _107
REMARK   45  A    between atoms: _107  and  _108
REMARK   46  A    between atoms: _110  and  _112
REMARK   47  A    between atoms: _112  and  _113
REMARK   48  A    between atoms: _112  and  _115
REMARK   49  A    between atoms: _115  and  _116
REMARK   50  A    between atoms: _118  and  _120
REMARK   51  A    between atoms: _120  and  _121
REMARK   52  A    between atoms: _120  and  _123
REMARK   53  A    between atoms: _123  and  _124
REMARK   54  A    between atoms: _126  and  _128
REMARK   55  A    between atoms: _128  and  _129
REMARK   56  A    between atoms: _128  and  _131
REMARK   57  A    between atoms: _131  and  _132
REMARK   58  A    between atoms: _135  and  _137
REMARK   59  A    between atoms: _137  and  _138
REMARK   60  A    between atoms: _137  and  _140
REMARK   61  A    between atoms: _140  and  _141
REMARK   62  A    between atoms: _151  and  _153
REMARK   63  A    between atoms: _153  and  _154
REMARK   64  A    between atoms: _153  and  _156
REMARK   65  A    between atoms: _156  and  _157
REMARK   66  A    between atoms: _159  and  _161
REMARK   67  A    between atoms: _161  and  _162
REMARK   68  A    between atoms: _161  and  _164
REMARK   69  A    between atoms: _164  and  _165
REMARK   70  A    between atoms: _168  and  _170
REMARK   71  A    between atoms: _170  and  _171
REMARK   72  A    between atoms: _170  and  _173
REMARK   73  A    between atoms: _173  and  _174
REMARK   74  A    between atoms: _176  and  _178
REMARK   75  A    between atoms: _178  and  _179
REMARK   76  A    between atoms: _178  and  _181
REMARK   77  A    between atoms: _181  and  _182
REMARK   78  A    between atoms: _187  and  _188
REMARK   79  A    between atoms: _190  and  _192
REMARK   80  A    between atoms: _192  and  _193
REMARK   81  A    between atoms: _195  and  _197
REMARK   82  A    between atoms: _197  and  _198
REMARK   83  A    between atoms: _197  and  _200
REMARK   84  A    between atoms: _200  and  _201
REMARK   85  A    between atoms: _204  and  _206
REMARK   86  A    between atoms: _206  and  _207
REMARK   87  A    between atoms: _209  and  _211
REMARK   88  A    between atoms: _211  and  _212
REMARK   89  A    between atoms: _211  and  _214
REMARK   90  A    between atoms: _214  and  _215
REMARK   91  A    between atoms: _217  and  _219
REMARK   92  A    between atoms: _219  and  _220
REMARK   93  A    between atoms: _219  and  _222
REMARK   94  A    between atoms: _222  and  _223
REMARK   95  A    between atoms: _225  and  _227
REMARK   96  A    between atoms: _227  and  _228
REMARK   97  A    between atoms: _227  and  _230
REMARK   98  A    between atoms: _230  and  _231
REMARK   99  A    between atoms: _233  and  _235
REMARK  100  A    between atoms: _235  and  _236
REMARK  101  A    between atoms: _235  and  _238
REMARK  102  A    between atoms: _238  and  _239
REMARK  103  A    between atoms: _241  and  _243
REMARK  104  A    between atoms: _243  and  _244
REMARK  105  A    between atoms: _243  and  _246
REMARK  106  A    between atoms: _246  and  _247
REMARK  107  A    between atoms: _249  and  _251
REMARK  108  A    between atoms: _251  and  _252
REMARK  109  A    between atoms: _251  and  _254
REMARK  110  A    between atoms: _254  and  _255
REMARK  111  A    between atoms: _261  and  _263
REMARK  112  A    between atoms: _263  and  _264
REMARK  113  A    between atoms: _263  and  _266
REMARK  114  A    between atoms: _266  and  _267
REMARK  115  A    between atoms: _270  and  _272
REMARK  116  A    between atoms: _272  and  _273
REMARK  117  A    between atoms: _272  and  _275
REMARK  118  A    between atoms: _275  and  _276
REMARK  119  A    between atoms: _279  and  _281
REMARK  120  A    between atoms: _281  and  _282
REMARK  121  A    between atoms: _281  and  _284
REMARK  122  A    between atoms: _284  and  _285
REMARK  123  A    between atoms: _288  and  _290
REMARK  124  A    between atoms: _290  and  _291
REMARK  125  A    between atoms: _293  and  _295
REMARK  126  A    between atoms: _295  and  _296
REMARK  127  A    between atoms: _295  and  _298
REMARK  128  A    between atoms: _298  and  _299
REMARK  129  A    between atoms: _302  and  _304
REMARK  130  A    between atoms: _304  and  _305
REMARK  131  A    between atoms: _304  and  _307
REMARK  132  A    between atoms: _307  and  _308
REMARK  133  A    between atoms: _311  and  _313
REMARK  134  A    between atoms: _313  and  _314
REMARK  135  A    between atoms: _316  and  _318
REMARK  136  A    between atoms: _318  and  _319
REMARK  137  A    between atoms: _318  and  _321
REMARK  138  A    between atoms: _321  and  _322
REMARK  139  A    between atoms: _325  and  _327
REMARK  140  A    between atoms: _327  and  _328
REMARK  141  A    between atoms: _331  and  _333
REMARK  142  A    between atoms: _333  and  _334
REMARK  143  A    between atoms: _333  and  _336
REMARK  144  A    between atoms: _336  and  _337
REMARK  145  A    between atoms: _343  and  _345
REMARK  146  A    between atoms: _345  and  _346
REMARK  147  A    between atoms: _345  and  _348
REMARK  148  A    between atoms: _348  and  _349
REMARK  149  A    between atoms: _352  and  _354
REMARK  150  A    between atoms: _354  and  _355
REMARK  151  A    between atoms: _354  and  _357
REMARK  152  A    between atoms: _357  and  _358
REMARK  153  A    between atoms: _363  and  _365
REMARK  154  A    between atoms: _365  and  _366
REMARK  155  A    between atoms: _365  and  _368
REMARK  156  A    between atoms: _368  and  _369
REMARK  157  A    between atoms: _372  and  _374
REMARK  158  A    between atoms: _374  and  _375
REMARK  159  A    between atoms: _374  and  _377
REMARK  160  A    between atoms: _377  and  _378
REMARK  161  A    between atoms: _378  and  _379
REMARK  162  A    between atoms: _384  and  _386
REMARK  163  A    between atoms: _386  and  _387
REMARK  164  A    between atoms: _389  and  _391
REMARK  165  A    between atoms: _391  and  _392
REMARK  166  A    between atoms: _391  and  _394
REMARK  167  A    between atoms: _394  and  _395
REMARK  168  A    between atoms: _401  and  _403
REMARK  169  A    between atoms: _403  and  _404
REMARK  170  A    between atoms: _403  and  _406
REMARK  171  A    between atoms: _406  and  _407
REMARK  172  A    between atoms: _417  and  _419
REMARK  173  A    between atoms: _419  and  _420
REMARK  174  A    between atoms: _419  and  _422
REMARK  175  A    between atoms: _422  and  _423
REMARK  176  A    between atoms: _426  and  _428
REMARK  177  A    between atoms: _428  and  _429
REMARK  178  A    between atoms: _432  and  _434
REMARK  179  A    between atoms: _434  and  _435
REMARK  180  A    between atoms: _434  and  _437
REMARK  181  A    between atoms: _437  and  _438
REMARK  182  A    between atoms: _441  and  _443
REMARK  183  A    between atoms: _443  and  _444
REMARK  184  A    between atoms: _443  and  _446
REMARK  185  A    between atoms: _446  and  _447
REMARK  186  A    between atoms: _450  and  _452
REMARK  187  A    between atoms: _452  and  _453
REMARK  188  A    between atoms: _455  and  _457
REMARK  189  A    between atoms: _457  and  _458
REMARK  190  A    between atoms: _457  and  _460
REMARK  191  A    between atoms: _460  and  _461
REMARK  192  A    between atoms: _464  and  _466
REMARK  193  A    between atoms: _466  and  _467
REMARK  194  A    between atoms: _466  and  _469
REMARK  195  A    between atoms: _469  and  _470
REMARK  196  A    between atoms: _473  and  _475
REMARK  197  A    between atoms: _475  and  _476
REMARK  198  A    between atoms: _475  and  _478
REMARK  199  A    between atoms: _478  and  _479
REMARK  200  A    between atoms: _482  and  _484
REMARK  201  A    between atoms: _484  and  _485
REMARK  202  A    between atoms: _484  and  _487
REMARK  203  A    between atoms: _487  and  _488
REMARK  204  A    between atoms: _491  and  _493
REMARK  205  A    between atoms: _493  and  _494
REMARK  206  A    between atoms: _493  and  _496
REMARK  207  A    between atoms: _496  and  _497
REMARK  208  A    between atoms: _502  and  _503
REMARK  209  A    between atoms: _505  and  _507
REMARK  210  A    between atoms: _507  and  _508
REMARK  211  A    between atoms: _507  and  _510
REMARK  212  A    between atoms: _510  and  _511
REMARK  213  A    between atoms: _517  and  _519
REMARK  214  A    between atoms: _519  and  _520
REMARK  215  A    between atoms: _519  and  _522
REMARK  216  A    between atoms: _522  and  _523
REMARK  217  A    between atoms: _526  and  _528
REMARK  218  A    between atoms: _528  and  _529
REMARK  219  A    between atoms: _531  and  _533
REMARK  220  A    between atoms: _533  and  _534
REMARK  221  A    between atoms: _533  and  _536
REMARK  222  A    between atoms: _536  and  _537
REMARK  223  A    between atoms: _540  and  _542
REMARK  224  A    between atoms: _542  and  _543
REMARK  225  A    between atoms: _542  and  _545
REMARK  226  A    between atoms: _545  and  _546
REMARK  227  A    between atoms: _551  and  _553
REMARK  228  A    between atoms: _553  and  _554
REMARK  229  A    between atoms: _553  and  _556
REMARK  230  A    between atoms: _556  and  _557
REMARK  231  A    between atoms: _560  and  _562
REMARK  232  A    between atoms: _562  and  _563
REMARK  233  A    between atoms: _562  and  _565
REMARK  234  A    between atoms: _565  and  _566
REMARK  235  A    between atoms: _572  and  _574
REMARK  236  A    between atoms: _574  and  _575
REMARK  237  A    between atoms: _577  and  _579
REMARK  238  A    between atoms: _579  and  _580
REMARK  239  A    between atoms: _579  and  _582
REMARK  240  A    between atoms: _582  and  _583
REMARK  241  A    between atoms: _586  and  _588
REMARK  242  A    between atoms: _588  and  _589
REMARK  243  A    between atoms: _588  and  _591
REMARK                            x       y       z     vdW  Elec       q    Type
REMARK                         _______ _______ _______ _____ _____    ______ ____
ROOT
ATOM      1  C   TYR A   4      -2.905   8.200  13.143  0.00  0.00    +0.241 C 
ATOM      2  O   TYR A   4      -3.706   9.013  13.610  0.00  0.00    -0.273 OA
ATOM      3  N   GLY A   5      -2.572   8.159  11.856  0.00  0.00    -0.295 N 
ATOM      4  H   GLY A   5      -2.005   7.356  11.516  0.00  0.00    +0.150 HD
ENDROOT
BRANCH   3   5
ATOM      5  CA  GLY A   5      -2.962   9.183  10.902  0.00  0.00    +0.176 C 
BRANCH   5   6
ATOM      6  C   GLY A   5      -4.453   9.359  10.701  0.00  0.00    +0.243 C 
ATOM      7  N   ASP A   6      -5.218   8.309  10.975  0.00  0.00    -0.296 N 
ATOM      8  H   ASP A   6      -4.771   7.431  11.308  0.00  0.00    +0.150 HD
ATOM      9  O   GLY A   5      -4.906  10.434  10.297  0.00  0.00    -0.273 OA
BRANCH   7  10
ATOM     10  CA  ASP A   6      -6.667   8.353  10.822  0.00  0.00    +0.160 C 
BRANCH  10  11
ATOM     11  C   ASP A   6      -7.365   8.521  12.166  0.00  0.00    +0.241 C 
ATOM     12  N   GLY A   7      -6.584   8.756  13.214  0.00  0.00    -0.295 N 
ATOM     13  H   GLY A   7      -5.554   8.809  13.083  0.00  0.00    +0.150 HD
ATOM     14  O   ASP A   6      -8.589   8.421  12.256  0.00  0.00    -0.273 OA
BRANCH  12  15
ATOM     15  CA  GLY A   7      -7.146   8.940  14.538  0.00  0.00    +0.176 C 
BRANCH  15  16
ATOM     16  C   GLY A   7      -7.372   7.651  15.307  0.00  0.00    +0.243 C 
ATOM     17  O   GLY A   7      -7.803   7.688  16.458  0.00  0.00    -0.273 OA
ATOM     18  N   SER A   8      -7.099   6.508  14.682  0.00  0.00    -0.295 N 
ATOM     19  H   SER A   8      -6.852   6.515  13.672  0.00  0.00    +0.150 HD
BRANCH  18  20
ATOM     20  CA  SER A   8      -7.145   5.246  15.411  0.00  0.00    +0.178 C 
BRANCH  20  21
ATOM     21  C   SER A   8      -6.038   5.247  16.463  0.00  0.00    +0.243 C 
ATOM     22  N   SER A   9      -6.222   4.455  17.509  0.00  0.00    -0.295 N 
ATOM     23  H   SER A   9      -7.008   3.774  17.510  0.00  0.00    +0.150 HD
ATOM     24  O   SER A   8      -5.037   5.951  16.330  0.00  0.00    -0.273 OA
BRANCH  22  25
ATOM     25  CA  SER A   9      -5.332   4.533  18.655  0.00  0.00    +0.178 C 
BRANCH  25  26
ATOM     26  C   SER A   9      -5.313   3.248  19.445  0.00  0.00    +0.243 C 
ATOM     27  N   SER A  10      -4.301   3.132  20.300  0.00  0.00    -0.296 N 
ATOM     28  H   SER A  10      -3.563   3.865  20.308  0.00  0.00    +0.150 HD
ATOM     29  O   SER A   9      -6.200   2.401  19.311  0.00  0.00    -0.273 OA
BRANCH  27  30
ATOM     30  CA  SER A  10      -4.191   2.015  21.224  0.00  0.00    +0.166 C 
BRANCH  30  31
ATOM     31  C   SER A  10      -3.249   2.412  22.357  0.00  0.00    +0.229 C 
ATOM     32  O   SER A  10      -2.506   3.386  22.239  0.00  0.00    -0.286 OA
ENDBRANCH  30  31
BRANCH  30  33
ATOM     33  CB  SER A  10      -3.705   0.758  20.494  0.00  0.00    +0.165 C 
BRANCH  33  34
ATOM     34  OG  SER A  10      -2.497   1.011  19.802  0.00  0.00    -0.380 OA
ATOM     35  H   SER A  10      -2.204   0.186  19.340  0.00  0.00    +0.211 HD
ENDBRANCH  33  34
ENDBRANCH  30  33
ENDBRANCH  27  30
ENDBRANCH  25  26
BRANCH  25  36
ATOM     36  CB  SER A   9      -5.776   5.670  19.577  0.00  0.00    +0.166 C 
BRANCH  36  37
ATOM     37  OG  SER A   9      -7.069   5.414  20.108  0.00  0.00    -0.380 OA
ATOM     38  H   SER A   9      -7.719   5.332  19.366  0.00  0.00    +0.211 HD
ENDBRANCH  36  37
ENDBRANCH  25  36
ENDBRANCH  22  25
ENDBRANCH  20  21
BRANCH  20  39
ATOM     39  CB  SER A   8      -7.005   4.047  14.476  0.00  0.00    +0.166 C 
BRANCH  39  40
ATOM     40  OG  SER A   8      -5.722   3.993  13.886  0.00  0.00    -0.380 OA
ATOM     41  H   SER A   8      -5.566   4.818  13.362  0.00  0.00    +0.211 HD
ENDBRANCH  39  40
ENDBRANCH  20  39
ENDBRANCH  18  20
ENDBRANCH  15  16
ENDBRANCH  12  15
ENDBRANCH  10  11
BRANCH  10  42
ATOM     42  CB  ASP A   6      -7.168   7.082  10.138  0.00  0.00    +0.143 C 
BRANCH  42  43
ATOM     43  CG  ASP A   6      -6.751   5.822  10.870  0.00  0.00    +0.367 C 
ATOM     44  OD2 ASP A   6      -6.138   5.927  11.953  0.00  0.00    -0.246 OA
ATOM     45  OD1 ASP A   6      -7.050   4.722  10.366  0.00  0.00    -0.246 OA
ENDBRANCH  42  43
ENDBRANCH  10  42
ENDBRANCH   7  10
ENDBRANCH   5   6
ENDBRANCH   3   5
BRANCH   1  46
ATOM     46  CA  TYR A   4      -2.226   7.162  14.041  0.00  0.00    +0.153 C 
BRANCH  46  49
ATOM     47  C   SER A   3      -2.014   7.821  16.370  0.00  0.00    +0.243 C 
ATOM     48  O   SER A   3      -1.001   8.475  16.149  0.00  0.00    -0.273 OA
ATOM     49  N   TYR A   4      -2.697   7.200  15.418  0.00  0.00    -0.297 N 
ATOM     50  H   TYR A   4      -3.591   6.728  15.661  0.00  0.00    +0.150 HD
BRANCH  47  51
ATOM     51  CA  SER A   3      -2.551   7.688  17.783  0.00  0.00    +0.178 C 
BRANCH  51  54
ATOM     52  C   ILE A   2      -1.531   6.324  19.533  0.00  0.00    +0.241 C 
ATOM     53  O   ILE A   2      -2.562   5.691  19.746  0.00  0.00    -0.273 OA
ATOM     54  N   SER A   3      -1.447   7.313  18.654  0.00  0.00    -0.295 N 
ATOM     55  H   SER A   3      -0.555   7.843  18.584  0.00  0.00    +0.150 HD
BRANCH  52  56
ATOM     56  CA  ILE A   2      -0.256   6.033  20.312  0.00  0.00    +0.148 C 
BRANCH  56  59
ATOM     57  C   SER A   1       0.150   5.939  22.688  0.00  0.00    +0.241 C 
ATOM     58  O   SER A   1       1.048   6.774  22.600  0.00  0.00    -0.274 OA
ATOM     59  N   ILE A   2      -0.579   5.559  21.648  0.00  0.00    -0.297 N 
ATOM     60  H   ILE A   2      -1.386   4.918  21.789  0.00  0.00    +0.150 HD
BRANCH  57  61
ATOM     61  CA  SER A   1      -0.177   5.285  24.015  0.00  0.00    +0.174 C 
BRANCH  61  62
ATOM     62  N   SER A   1       1.069   4.799  24.572  0.00  0.00    -0.236 NA
ATOM     63  H   SER A   1       1.968   5.171  24.205  0.00  0.00    +0.142 HD
ENDBRANCH  61  62
BRANCH  61  64
ATOM     64  CB  SER A   1      -0.817   6.302  24.961  0.00  0.00    +0.163 C 
BRANCH  64  65
ATOM     65  OG  SER A   1      -2.041   6.782  24.433  0.00  0.00    -0.380 OA
ATOM     66  H   SER A   1      -2.666   6.024  24.310  0.00  0.00    +0.211 HD
ENDBRANCH  64  65
ENDBRANCH  61  64
ENDBRANCH  57  61
ENDBRANCH  56  59
BRANCH  56  67
ATOM     67  CB  ILE A   2       0.645   5.003  19.567  0.00  0.00    +0.027 C 
ATOM     68  CG2 ILE A   2      -0.124   3.726  19.276  0.00  0.00    +0.002 C 
BRANCH  67  69
ATOM     69  CG1 ILE A   2       1.276   5.590  18.303  0.00  0.00    +0.002 C 
ATOM     70  CD1 ILE A   2       2.416   4.753  17.778  0.00  0.00    +0.000 C 
ENDBRANCH  67  69
ENDBRANCH  56  67
ENDBRANCH  52  56
ENDBRANCH  51  54
BRANCH  51  71
ATOM     71  CB  SER A   3      -3.165   9.014  18.235  0.00  0.00    +0.166 C 
BRANCH  71  72
ATOM     72  OG  SER A   3      -4.238   9.393  17.394  0.00  0.00    -0.380 OA
ATOM     73  H   SER A   3      -3.908   9.497  16.466  0.00  0.00    +0.211 HD
ENDBRANCH  71  72
ENDBRANCH  51  71
ENDBRANCH  47  51
ENDBRANCH  46  49
BRANCH  46  74
ATOM     74  CB  TYR A   4      -2.374   5.747  13.478  0.00  0.00    +0.055 C 
BRANCH  74  75
ATOM     75  CG  TYR A   4      -1.549   4.725  14.231  0.00  0.00    -0.020 A 
ATOM     76  CD2 TYR A   4      -2.123   3.911  15.197  0.00  0.00    -0.001 A 
ATOM     77  CE2 TYR A   4      -1.365   2.991  15.894  0.00  0.00    +0.036 A 
ATOM     78  CZ  TYR A   4      -0.022   2.876  15.625  0.00  0.00    +0.134 A 
ATOM     79  CE1 TYR A   4       0.576   3.674  14.678  0.00  0.00    +0.036 A 
ATOM     80  CD1 TYR A   4      -0.187   4.599  13.995  0.00  0.00    -0.001 A 
BRANCH  78  81
ATOM     81  OH  TYR A   4       0.705   1.950  16.329  0.00  0.00    -0.506 OA
ATOM     82  HH  TYR A   4       1.422   2.410  16.834  0.00  0.00    +0.292 HD
ENDBRANCH  78  81
ENDBRANCH  74  75
ENDBRANCH  46  74
ENDBRANCH   1  46
TORSDOF 37
REMARK  Name = ../refined-set-2016/3pww/3pww_pocket.pdb
REMARK  243 active torsions:
REMARK  status: ('A' for Active; 'I' for Inactive)
REMARK    1  A    between atoms: _1  and  _3
REMARK    2  A    between atoms: _3  and  _4
REMARK    3  A    between atoms: _3  and  _6
REMARK    4  A    between atoms: _6  and  _7
REMARK    5  A    between atoms: _10  and  _12
REMARK    6  A    between atoms: _12  and  _13
REMARK    7  A    between atoms: _12  and  _15
REMARK    8  A    between atoms: _15  and  _16
REMARK    9  A    between atoms: _19  and  _21
REMARK   10  A    between atoms: _21  and  _22
REMARK   11  A    between atoms: _21  and  _24
REMARK   12  A    between atoms: _24  and  _25
REMARK   13  A    between atoms: _28  and  _30
REMARK   14  A    between atoms: _30  and  _31
REMARK   15  A    between atoms: _30  and  _33
REMARK   16  A    between atoms: _33  and  _34
REMARK   17  A    between atoms: _37  and  _39
REMARK   18  A    between atoms: _39  and  _40
REMARK   19  A    between atoms: _39  and  _42
REMARK   20  A    between atoms: _42  and  _43
REMARK   21  A    between atoms: _46  and  _48
REMARK   22  A    between atoms: _48  and  _49
REMARK   23  A    between atoms: _52  and  _54
REMARK   24  A    between atoms: _54  and  _55
REMARK   25  A    between atoms: _54  and  _57
REMARK   26  A    between atoms: _57  and  _58
REMARK   27  A    between atoms: _63  and  _64
REMARK   28  A    between atoms: _66  and  _68
REMARK   29  A    between atoms: _68  and  _69
REMARK   30  A    between atoms: _68  and  _71
REMARK   31  A    between atoms: _71  and  _72
REMARK   32  A    between atoms: _75  and  _77
REMARK   33  A    between atoms: _77  and  _78
REMARK   34  A    between atoms: _77  and  _80
REMARK   35  A    between atoms: _80  and  _81
REMARK   36  A    between atoms: _87  and  _89
REMARK   37  A    between atoms: _89  and  _90
REMARK   38  A    between atoms: _89  and  _92
REMARK   39  A    between atoms: _92  and  _93
REMARK   40  A    between atoms: _96  and  _98
REMARK   41  A    between atoms: _98  and  _99
REMARK   42  A    between atoms: _98  and  _101
REMARK   43  A    between atoms: _101  and  _102
REMARK   44  A    between atoms: _105  and  _107
REMARK   45  A    between atoms: _107  and  _108
REMARK   46  A    between atoms: _110  and  _112
REMARK   47  A    between atoms: _112  and  _113
REMARK   48  A    between atoms: _112  and  _115
REMARK   49  A    between atoms: _115  and  _116
REMARK   50  A    between atoms: _118  and  _120
REMARK   51  A    between atoms: _120  and  _121
REMARK   52  A    between atoms: _120  and  _123
REMARK   53  A    between atoms: _123  and  _124
REMARK   54  A    between atoms: _126  and  _128
REMARK   55  A    between atoms: _128  and  _129
REMARK   56  A    between atoms: _128  and  _131
REMARK   57  A    between atoms: _131  and  _132
REMARK   58  A    between atoms: _135  and  _137
REMARK   59  A    between atoms: _137  and  _138
REMARK   60  A    between atoms: _137  and  _140
REMARK   61  A    between atoms: _140  and  _141
REMARK   62  A    between atoms: _151  and  _153
REMARK   63  A    between atoms: _153  and  _154
REMARK   64  A    between atoms: _153  and  _156
REMARK   65  A    between atoms: _156  and  _157
REMARK   66  A    between atoms: _159  and  _161
REMARK   67  A    between atoms: _161  and  _162
REMARK   68  A    between atoms: _161  and  _164
REMARK   69  A    between atoms: _164  and  _165
REMARK   70  A    between atoms: _168  and  _170
REMARK   71  A    between atoms: _170  and  _171
REMARK   72  A    between atoms: _170  and  _173
REMARK   73  A    between atoms: _173  and  _174
REMARK   74  A    between atoms: _176  and  _178
REMARK   75  A    between atoms: _178  and  _179
REMARK   76  A    between atoms: _178  and  _181
REMARK   77  A    between atoms: _181  and  _182
REMARK   78  A    between atoms: _187  and  _188
REMARK   79  A    between atoms: _190  and  _192
REMARK   80  A    between atoms: _192  and  _193
REMARK   81  A    between atoms: _195  and  _197
REMARK   82  A    between atoms: _197  and  _198
REMARK   83  A    between atoms: _197  and  _200
REMARK   84  A    between atoms: _200  and  _201
REMARK   85  A    between atoms: _204  and  _206
REMARK   86  A    between atoms: _206  and  _207
REMARK   87  A    between atoms: _209  and  _211
REMARK   88  A    between atoms: _211  and  _212
REMARK   89  A    between atoms: _211  and  _214
REMARK   90  A    between atoms: _214  and  _215
REMARK   91  A    between atoms: _217  and  _219
REMARK   92  A    between atoms: _219  and  _220
REMARK   93  A    between atoms: _219  and  _222
REMARK   94  A    between atoms: _222  and  _223
REMARK   95  A    between atoms: _225  and  _227
REMARK   96  A    between atoms: _227  and  _228
REMARK   97  A    between atoms: _227  and  _230
REMARK   98  A    between atoms: _230  and  _231
REMARK   99  A    between atoms: _233  and  _235
REMARK  100  A    between atoms: _235  and  _236
REMARK  101  A    between atoms: _235  and  _238
REMARK  102  A    between atoms: _238  and  _239
REMARK  103  A    between atoms: _241  and  _243
REMARK  104  A    between atoms: _243  and  _244
REMARK  105  A    between atoms: _243  and  _246
REMARK  106  A    between atoms: _246  and  _247
REMARK  107  A    between atoms: _249  and  _251
REMARK  108  A    between atoms: _251  and  _252
REMARK  109  A    between atoms: _251  and  _254
REMARK  110  A    between atoms: _254  and  _255
REMARK  111  A    between atoms: _261  and  _263
REMARK  112  A    between atoms: _263  and  _264
REMARK  113  A    between atoms: _263  and  _266
REMARK  114  A    between atoms: _266  and  _267
REMARK  115  A    between atoms: _270  and  _272
REMARK  116  A    between atoms: _272  and  _273
REMARK  117  A    between atoms: _272  and  _275
REMARK  118  A    between atoms: _275  and  _276
REMARK  119  A    between atoms: _279  and  _281
REMARK  120  A    between atoms: _281  and  _282
REMARK  121  A    between atoms: _281  and  _284
REMARK  122  A    between atoms: _284  and  _285
REMARK  123  A    between atoms: _288  and  _290
REMARK  124  A    between atoms: _290  and  _291
REMARK  125  A    between atoms: _293  and  _295
REMARK  126  A    between atoms: _295  and  _296
REMARK  127  A    between atoms: _295  and  _298
REMARK  128  A    between atoms: _298  and  _299
REMARK  129  A    between atoms: _302  and  _304
REMARK  130  A    between atoms: _304  and  _305
REMARK  131  A    between atoms: _304  and  _307
REMARK  132  A    between atoms: _307  and  _308
REMARK  133  A    between atoms: _311  and  _313
REMARK  134  A    between atoms: _313  and  _314
REMARK  135  A    between atoms: _316  and  _318
REMARK  136  A    between atoms: _318  and  _319
REMARK  137  A    between atoms: _318  and  _321
REMARK  138  A    between atoms: _321  and  _322
REMARK  139  A    between atoms: _325  and  _327
REMARK  140  A    between atoms: _327  and  _328
REMARK  141  A    between atoms: _331  and  _333
REMARK  142  A    between atoms: _333  and  _334
REMARK  143  A    between atoms: _333  and  _336
REMARK  144  A    between atoms: _336  and  _337
REMARK  145  A    between atoms: _343  and  _345
REMARK  146  A    between atoms: _345  and  _346
REMARK  147  A    between atoms: _345  and  _348
REMARK  148  A    between atoms: _348  and  _349
REMARK  149  A    between atoms: _352  and  _354
REMARK  150  A    between atoms: _354  and  _355
REMARK  151  A    between atoms: _354  and  _357
REMARK  152  A    between atoms: _357  and  _358
REMARK  153  A    between atoms: _363  and  _365
REMARK  154  A    between atoms: _365  and  _366
REMARK  155  A    between atoms: _365  and  _368
REMARK  156  A    between atoms: _368  and  _369
REMARK  157  A    between atoms: _372  and  _374
REMARK  158  A    between atoms: _374  and  _375
REMARK  159  A    between atoms: _374  and  _377
REMARK  160  A    between atoms: _377  and  _378
REMARK  161  A    between atoms: _378  and  _379
REMARK  162  A    between atoms: _384  and  _386
REMARK  163  A    between atoms: _386  and  _387
REMARK  164  A    between atoms: _389  and  _391
REMARK  165  A    between atoms: _391  and  _392
REMARK  166  A    between atoms: _391  and  _394
REMARK  167  A    between atoms: _394  and  _395
REMARK  168  A    between atoms: _401  and  _403
REMARK  169  A    between atoms: _403  and  _404
REMARK  170  A    between atoms: _403  and  _406
REMARK  171  A    between atoms: _406  and  _407
REMARK  172  A    between atoms: _417  and  _419
REMARK  173  A    between atoms: _419  and  _420
REMARK  174  A    between atoms: _419  and  _422
REMARK  175  A    between atoms: _422  and  _423
REMARK  176  A    between atoms: _426  and  _428
REMARK  177  A    between atoms: _428  and  _429
REMARK  178  A    between atoms: _432  and  _434
REMARK  179  A    between atoms: _434  and  _435
REMARK  180  A    between atoms: _434  and  _437
REMARK  181  A    between atoms: _437  and  _438
REMARK  182  A    between atoms: _441  and  _443
REMARK  183  A    between atoms: _443  and  _444
REMARK  184  A    between atoms: _443  and  _446
REMARK  185  A    between atoms: _446  and  _447
REMARK  186  A    between atoms: _450  and  _452
REMARK  187  A    between atoms: _452  and  _453
REMARK  188  A    between atoms: _455  and  _457
REMARK  189  A    between atoms: _457  and  _458
REMARK  190  A    between atoms: _457  and  _460
REMARK  191  A    between atoms: _460  and  _461
REMARK  192  A    between atoms: _464  and  _466
REMARK  193  A    between atoms: _466  and  _467
REMARK  194  A    between atoms: _466  and  _469
REMARK  195  A    between atoms: _469  and  _470
REMARK  196  A    between atoms: _473  and  _475
REMARK  197  A    between atoms: _475  and  _476
REMARK  198  A    between atoms: _475  and  _478
REMARK  199  A    between atoms: _478  and  _479
REMARK  200  A    between atoms: _482  and  _484
REMARK  201  A    between atoms: _484  and  _485
REMARK  202  A    between atoms: _484  and  _487
REMARK  203  A    between atoms: _487  and  _488
REMARK  204  A    between atoms: _491  and  _493
REMARK  205  A    between atoms: _493  and  _494
REMARK  206  A    between atoms: _493  and  _496
REMARK  207  A    between atoms: _496  and  _497
REMARK  208  A    between atoms: _502  and  _503
REMARK  209  A    between atoms: _505  and  _507
REMARK  210  A    between atoms: _507  and  _508
REMARK  211  A    between atoms: _507  and  _510
REMARK  212  A    between atoms: _510  and  _511
REMARK  213  A    between atoms: _517  and  _519
REMARK  214  A    between atoms: _519  and  _520
REMARK  215  A    between atoms: _519  and  _522
REMARK  216  A    between atoms: _522  and  _523
REMARK  217  A    between atoms: _526  and  _528
REMARK  218  A    between atoms: _528  and  _529
REMARK  219  A    between atoms: _531  and  _533
REMARK  220  A    between atoms: _533  and  _534
REMARK  221  A    between atoms: _533  and  _536
REMARK  222  A    between atoms: _536  and  _537
REMARK  223  A    between atoms: _540  and  _542
REMARK  224  A    between atoms: _542  and  _543
REMARK  225  A    between atoms: _542  and  _545
REMARK  226  A    between atoms: _545  and  _546
REMARK  227  A    between atoms: _551  and  _553
REMARK  228  A    between atoms: _553  and  _554
REMARK  229  A    between atoms: _553  and  _556
REMARK  230  A    between atoms: _556  and  _557
REMARK  231  A    between atoms: _560  and  _562
REMARK  232  A    between atoms: _562  and  _563
REMARK  233  A    between atoms: _562  and  _565
REMARK  234  A    between atoms: _565  and  _566
REMARK  235  A    between atoms: _572  and  _574
REMARK  236  A    between atoms: _574  and  _575
REMARK  237  A    between atoms: _577  and  _579
REMARK  238  A    between atoms: _579  and  _580
REMARK  239  A    between atoms: _579  and  _582
REMARK  240  A    between atoms: _582  and  _583
REMARK  241  A    between atoms: _586  and  _588
REMARK  242  A    between atoms: _588  and  _589
REMARK  243  A    between atoms: _588  and  _591
REMARK                            x       y       z     vdW  Elec       q    Type
REMARK                         _______ _______ _______ _____ _____    ______ ____
ROOT
ATOM      1  CA  SER A   1      -9.952   1.906  19.140  0.00  0.00    +0.163 C 
ENDROOT
BRANCH   1   2
ATOM      2  N   SER A   1      -8.782   1.217  19.669  0.00  0.00    -0.237 NA
ATOM      3  H   SER A   1      -7.846   1.387  19.249  0.00  0.00    +0.142 HD
ENDBRANCH   1   2
BRANCH   1   4
ATOM      4  C   SER A   1     -10.737   1.008  18.187  0.00  0.00    +0.227 C 
ATOM      5  O   SER A   1     -10.276  -0.064  17.787  0.00  0.00    -0.287 OA
ENDBRANCH   1   4
BRANCH   1   6
ATOM      6  CB  SER A   1      -9.556   3.215  18.459  0.00  0.00    +0.162 C 
BRANCH   6   7
ATOM      7  OG  SER A   1      -8.787   2.982  17.297  0.00  0.00    -0.380 OA
ATOM      8  H   SER A   1      -9.314   2.442  16.656  0.00  0.00    +0.211 HD
ENDBRANCH   6   7
ENDBRANCH   1   6
TORSDOF 4
REMARK  Name = ../refined-set-2016/3pww/3pww_pocket.pdb
REMARK  243 active torsions:
REMARK  status: ('A' for Active; 'I' for Inactive)
REMARK    1  A    between atoms: _1  and  _3
REMARK    2  A    between atoms: _3  and  _4
REMARK    3  A    between atoms: _3  and  _6
REMARK    4  A    between atoms: _6  and  _7
REMARK    5  A    between atoms: _10  and  _12
REMARK    6  A    between atoms: _12  and  _13
REMARK    7  A    between atoms: _12  and  _15
REMARK    8  A    between atoms: _15  and  _16
REMARK    9  A    between atoms: _19  and  _21
REMARK   10  A    between atoms: _21  and  _22
REMARK   11  A    between atoms: _21  and  _24
REMARK   12  A    between atoms: _24  and  _25
REMARK   13  A    between atoms: _28  and  _30
REMARK   14  A    between atoms: _30  and  _31
REMARK   15  A    between atoms: _30  and  _33
REMARK   16  A    between atoms: _33  and  _34
REMARK   17  A    between atoms: _37  and  _39
REMARK   18  A    between atoms: _39  and  _40
REMARK   19  A    between atoms: _39  and  _42
REMARK   20  A    between atoms: _42  and  _43
REMARK   21  A    between atoms: _46  and  _48
REMARK   22  A    between atoms: _48  and  _49
REMARK   23  A    between atoms: _52  and  _54
REMARK   24  A    between atoms: _54  and  _55
REMARK   25  A    between atoms: _54  and  _57
REMARK   26  A    between atoms: _57  and  _58
REMARK   27  A    between atoms: _63  and  _64
REMARK   28  A    between atoms: _66  and  _68
REMARK   29  A    between atoms: _68  and  _69
REMARK   30  A    between atoms: _68  and  _71
REMARK   31  A    between atoms: _71  and  _72
REMARK   32  A    between atoms: _75  and  _77
REMARK   33  A    between atoms: _77  and  _78
REMARK   34  A    between atoms: _77  and  _80
REMARK   35  A    between atoms: _80  and  _81
REMARK   36  A    between atoms: _87  and  _89
REMARK   37  A    between atoms: _89  and  _90
REMARK   38  A    between atoms: _89  and  _92
REMARK   39  A    between atoms: _92  and  _93
REMARK   40  A    between atoms: _96  and  _98
REMARK   41  A    between atoms: _98  and  _99
REMARK   42  A    between atoms: _98  and  _101
REMARK   43  A    between atoms: _101  and  _102
REMARK   44  A    between atoms: _105  and  _107
REMARK   45  A    between atoms: _107  and  _108
REMARK   46  A    between atoms: _110  and  _112
REMARK   47  A    between atoms: _112  and  _113
REMARK   48  A    between atoms: _112  and  _115
REMARK   49  A    between atoms: _115  and  _116
REMARK   50  A    between atoms: _118  and  _120
REMARK   51  A    between atoms: _120  and  _121
REMARK   52  A    between atoms: _120  and  _123
REMARK   53  A    between atoms: _123  and  _124
REMARK   54  A    between atoms: _126  and  _128
REMARK   55  A    between atoms: _128  and  _129
REMARK   56  A    between atoms: _128  and  _131
REMARK   57  A    between atoms: _131  and  _132
REMARK   58  A    between atoms: _135  and  _137
REMARK   59  A    between atoms: _137  and  _138
REMARK   60  A    between atoms: _137  and  _140
REMARK   61  A    between atoms: _140  and  _141
REMARK   62  A    between atoms: _151  and  _153
REMARK   63  A    between atoms: _153  and  _154
REMARK   64  A    between atoms: _153  and  _156
REMARK   65  A    between atoms: _156  and  _157
REMARK   66  A    between atoms: _159  and  _161
REMARK   67  A    between atoms: _161  and  _162
REMARK   68  A    between atoms: _161  and  _164
REMARK   69  A    between atoms: _164  and  _165
REMARK   70  A    between atoms: _168  and  _170
REMARK   71  A    between atoms: _170  and  _171
REMARK   72  A    between atoms: _170  and  _173
REMARK   73  A    between atoms: _173  and  _174
REMARK   74  A    between atoms: _176  and  _178
REMARK   75  A    between atoms: _178  and  _179
REMARK   76  A    between atoms: _178  and  _181
REMARK   77  A    between atoms: _181  and  _182
REMARK   78  A    between atoms: _187  and  _188
REMARK   79  A    between atoms: _190  and  _192
REMARK   80  A    between atoms: _192  and  _193
REMARK   81  A    between atoms: _195  and  _197
REMARK   82  A    between atoms: _197  and  _198
REMARK   83  A    between atoms: _197  and  _200
REMARK   84  A    between atoms: _200  and  _201
REMARK   85  A    between atoms: _204  and  _206
REMARK   86  A    between atoms: _206  and  _207
REMARK   87  A    between atoms: _209  and  _211
REMARK   88  A    between atoms: _211  and  _212
REMARK   89  A    between atoms: _211  and  _214
REMARK   90  A    between atoms: _214  and  _215
REMARK   91  A    between atoms: _217  and  _219
REMARK   92  A    between atoms: _219  and  _220
REMARK   93  A    between atoms: _219  and  _222
REMARK   94  A    between atoms: _222  and  _223
REMARK   95  A    between atoms: _225  and  _227
REMARK   96  A    between atoms: _227  and  _228
REMARK   97  A    between atoms: _227  and  _230
REMARK   98  A    between atoms: _230  and  _231
REMARK   99  A    between atoms: _233  and  _235
REMARK  100  A    between atoms: _235  and  _236
REMARK  101  A    between atoms: _235  and  _238
REMARK  102  A    between atoms: _238  and  _239
REMARK  103  A    between atoms: _241  and  _243
REMARK  104  A    between atoms: _243  and  _244
REMARK  105  A    between atoms: _243  and  _246
REMARK  106  A    between atoms: _246  and  _247
REMARK  107  A    between atoms: _249  and  _251
REMARK  108  A    between atoms: _251  and  _252
REMARK  109  A    between atoms: _251  and  _254
REMARK  110  A    between atoms: _254  and  _255
REMARK  111  A    between atoms: _261  and  _263
REMARK  112  A    between atoms: _263  and  _264
REMARK  113  A    between atoms: _263  and  _266
REMARK  114  A    between atoms: _266  and  _267
REMARK  115  A    between atoms: _270  and  _272
REMARK  116  A    between atoms: _272  and  _273
REMARK  117  A    between atoms: _272  and  _275
REMARK  118  A    between atoms: _275  and  _276
REMARK  119  A    between atoms: _279  and  _281
REMARK  120  A    between atoms: _281  and  _282
REMARK  121  A    between atoms: _281  and  _284
REMARK  122  A    between atoms: _284  and  _285
REMARK  123  A    between atoms: _288  and  _290
REMARK  124  A    between atoms: _290  and  _291
REMARK  125  A    between atoms: _293  and  _295
REMARK  126  A    between atoms: _295  and  _296
REMARK  127  A    between atoms: _295  and  _298
REMARK  128  A    between atoms: _298  and  _299
REMARK  129  A    between atoms: _302  and  _304
REMARK  130  A    between atoms: _304  and  _305
REMARK  131  A    between atoms: _304  and  _307
REMARK  132  A    between atoms: _307  and  _308
REMARK  133  A    between atoms: _311  and  _313
REMARK  134  A    between atoms: _313  and  _314
REMARK  135  A    between atoms: _316  and  _318
REMARK  136  A    between atoms: _318  and  _319
REMARK  137  A    between atoms: _318  and  _321
REMARK  138  A    between atoms: _321  and  _322
REMARK  139  A    between atoms: _325  and  _327
REMARK  140  A    between atoms: _327  and  _328
REMARK  141  A    between atoms: _331  and  _333
REMARK  142  A    between atoms: _333  and  _334
REMARK  143  A    between atoms: _333  and  _336
REMARK  144  A    between atoms: _336  and  _337
REMARK  145  A    between atoms: _343  and  _345
REMARK  146  A    between atoms: _345  and  _346
REMARK  147  A    between atoms: _345  and  _348
REMARK  148  A    between atoms: _348  and  _349
REMARK  149  A    between atoms: _352  and  _354
REMARK  150  A    between atoms: _354  and  _355
REMARK  151  A    between atoms: _354  and  _357
REMARK  152  A    between atoms: _357  and  _358
REMARK  153  A    between atoms: _363  and  _365
REMARK  154  A    between atoms: _365  and  _366
REMARK  155  A    between atoms: _365  and  _368
REMARK  156  A    between atoms: _368  and  _369
REMARK  157  A    between atoms: _372  and  _374
REMARK  158  A    between atoms: _374  and  _375
REMARK  159  A    between atoms: _374  and  _377
REMARK  160  A    between atoms: _377  and  _378
REMARK  161  A    between atoms: _378  and  _379
REMARK  162  A    between atoms: _384  and  _386
REMARK  163  A    between atoms: _386  and  _387
REMARK  164  A    between atoms: _389  and  _391
REMARK  165  A    between atoms: _391  and  _392
REMARK  166  A    between atoms: _391  and  _394
REMARK  167  A    between atoms: _394  and  _395
REMARK  168  A    between atoms: _401  and  _403
REMARK  169  A    between atoms: _403  and  _404
REMARK  170  A    between atoms: _403  and  _406
REMARK  171  A    between atoms: _406  and  _407
REMARK  172  A    between atoms: _417  and  _419
REMARK  173  A    between atoms: _419  and  _420
REMARK  174  A    between atoms: _419  and  _422
REMARK  175  A    between atoms: _422  and  _423
REMARK  176  A    between atoms: _426  and  _428
REMARK  177  A    between atoms: _428  and  _429
REMARK  178  A    between atoms: _432  and  _434
REMARK  179  A    between atoms: _434  and  _435
REMARK  180  A    between atoms: _434  and  _437
REMARK  181  A    between atoms: _437  and  _438
REMARK  182  A    between atoms: _441  and  _443
REMARK  183  A    between atoms: _443  and  _444
REMARK  184  A    between atoms: _443  and  _446
REMARK  185  A    between atoms: _446  and  _447
REMARK  186  A    between atoms: _450  and  _452
REMARK  187  A    between atoms: _452  and  _453
REMARK  188  A    between atoms: _455  and  _457
REMARK  189  A    between atoms: _457  and  _458
REMARK  190  A    between atoms: _457  and  _460
REMARK  191  A    between atoms: _460  and  _461
REMARK  192  A    between atoms: _464  and  _466
REMARK  193  A    between atoms: _466  and  _467
REMARK  194  A    between atoms: _466  and  _469
REMARK  195  A    between atoms: _469  and  _470
REMARK  196  A    between atoms: _473  and  _475
REMARK  197  A    between atoms: _475  and  _476
REMARK  198  A    between atoms: _475  and  _478
REMARK  199  A    between atoms: _478  and  _479
REMARK  200  A    between atoms: _482  and  _484
REMARK  201  A    between atoms: _484  and  _485
REMARK  202  A    between atoms: _484  and  _487
REMARK  203  A    between atoms: _487  and  _488
REMARK  204  A    between atoms: _491  and  _493
REMARK  205  A    between atoms: _493  and  _494
REMARK  206  A    between atoms: _493  and  _496
REMARK  207  A    between atoms: _496  and  _497
REMARK  208  A    between atoms: _502  and  _503
REMARK  209  A    between atoms: _505  and  _507
REMARK  210  A    between atoms: _507  and  _508
REMARK  211  A    between atoms: _507  and  _510
REMARK  212  A    between atoms: _510  and  _511
REMARK  213  A    between atoms: _517  and  _519
REMARK  214  A    between atoms: _519  and  _520
REMARK  215  A    between atoms: _519  and  _522
REMARK  216  A    between atoms: _522  and  _523
REMARK  217  A    between atoms: _526  and  _528
REMARK  218  A    between atoms: _528  and  _529
REMARK  219  A    between atoms: _531  and  _533
REMARK  220  A    between atoms: _533  and  _534
REMARK  221  A    between atoms: _533  and  _536
REMARK  222  A    between atoms: _536  and  _537
REMARK  223  A    between atoms: _540  and  _542
REMARK  224  A    between atoms: _542  and  _543
REMARK  225  A    between atoms: _542  and  _545
REMARK  226  A    between atoms: _545  and  _546
REMARK  227  A    between atoms: _551  and  _553
REMARK  228  A    between atoms: _553  and  _554
REMARK  229  A    between atoms: _553  and  _556
REMARK  230  A    between atoms: _556  and  _557
REMARK  231  A    between atoms: _560  and  _562
REMARK  232  A    between atoms: _562  and  _563
REMARK  233  A    between atoms: _562  and  _565
REMARK  234  A    between atoms: _565  and  _566
REMARK  235  A    between atoms: _572  and  _574
REMARK  236  A    between atoms: _574  and  _575
REMARK  237  A    between atoms: _577  and  _579
REMARK  238  A    between atoms: _579  and  _580
REMARK  239  A    between atoms: _579  and  _582
REMARK  240  A    between atoms: _582  and  _583
REMARK  241  A    between atoms: _586  and  _588
REMARK  242  A    between atoms: _588  and  _589
REMARK  243  A    between atoms: _588  and  _591
REMARK                            x       y       z     vdW  Elec       q    Type
REMARK                         _______ _______ _______ _____ _____    ______ ____
ROOT
ATOM      1  C   SER A   1     -10.045  -0.726  13.919  0.00  0.00    +0.241 C 
ATOM      2  N   PHE A   2      -9.322  -0.818  15.032  0.00  0.00    -0.298 N 
ATOM      3  H   PHE A   2      -9.342  -0.046  15.729  0.00  0.00    +0.150 HD
ATOM      4  O   SER A   1     -10.012  -1.583  13.036  0.00  0.00    -0.274 OA
ENDROOT
BRANCH   1   5
ATOM      5  CA  SER A   1     -10.934   0.506  13.777  0.00  0.00    +0.174 C 
BRANCH   5   6
ATOM      6  N   SER A   1     -11.486   0.916  15.065  0.00  0.00    -0.236 NA
ATOM      7  H   SER A   1     -11.243   1.849  15.455  0.00  0.00    +0.142 HD
ENDBRANCH   5   6
BRANCH   5   8
ATOM      8  CB  SER A   1     -10.159   1.649  13.120  0.00  0.00    +0.163 C 
BRANCH   8   9
ATOM      9  OG  SER A   1      -9.026   2.006  13.890  0.00  0.00    -0.380 OA
ATOM     10  H   SER A   1      -9.318   2.297  14.790  0.00  0.00    +0.211 HD
ENDBRANCH   8   9
ENDBRANCH   5   8
ENDBRANCH   1   5
BRANCH   2  11
ATOM     11  CA  PHE A   2      -8.500  -1.999  15.279  0.00  0.00    +0.141 C 
BRANCH  11  12
ATOM     12  C   PHE A   2      -9.376  -3.204  15.597  0.00  0.00    +0.227 C 
ATOM     13  O   PHE A   2      -9.172  -4.287  15.050  0.00  0.00    -0.286 OA
ENDBRANCH  11  12
BRANCH  11  14
ATOM     14  CB  PHE A   2      -7.471  -1.751  16.388  0.00  0.00    +0.054 C 
BRANCH  14  15
ATOM     15  CG  PHE A   2      -6.337  -0.880  15.958  0.00  0.00    -0.020 A 
ATOM     16  CD2 PHE A   2      -6.200   0.406  16.445  0.00  0.00    -0.004 A 
ATOM     17  CE2 PHE A   2      -5.159   1.212  16.025  0.00  0.00    -0.000 A 
ATOM     18  CZ  PHE A   2      -4.248   0.739  15.106  0.00  0.00    -0.000 A 
ATOM     19  CE1 PHE A   2      -4.380  -0.544  14.606  0.00  0.00    -0.000 A 
ATOM     20  CD1 PHE A   2      -5.423  -1.343  15.028  0.00  0.00    -0.004 A 
ENDBRANCH  14  15
ENDBRANCH  11  14
ENDBRANCH   2  11
TORSDOF 8
REMARK  Name = ../refined-set-2016/3pww/3pww_pocket.pdb
REMARK  243 active torsions:
REMARK  status: ('A' for Active; 'I' for Inactive)
REMARK    1  A    between atoms: _1  and  _3
REMARK    2  A    between atoms: _3  and  _4
REMARK    3  A    between atoms: _3  and  _6
REMARK    4  A    between atoms: _6  and  _7
REMARK    5  A    between atoms: _10  and  _12
REMARK    6  A    between atoms: _12  and  _13
REMARK    7  A    between atoms: _12  and  _15
REMARK    8  A    between atoms: _15  and  _16
REMARK    9  A    between atoms: _19  and  _21
REMARK   10  A    between atoms: _21  and  _22
REMARK   11  A    between atoms: _21  and  _24
REMARK   12  A    between atoms: _24  and  _25
REMARK   13  A    between atoms: _28  and  _30
REMARK   14  A    between atoms: _30  and  _31
REMARK   15  A    between atoms: _30  and  _33
REMARK   16  A    between atoms: _33  and  _34
REMARK   17  A    between atoms: _37  and  _39
REMARK   18  A    between atoms: _39  and  _40
REMARK   19  A    between atoms: _39  and  _42
REMARK   20  A    between atoms: _42  and  _43
REMARK   21  A    between atoms: _46  and  _48
REMARK   22  A    between atoms: _48  and  _49
REMARK   23  A    between atoms: _52  and  _54
REMARK   24  A    between atoms: _54  and  _55
REMARK   25  A    between atoms: _54  and  _57
REMARK   26  A    between atoms: _57  and  _58
REMARK   27  A    between atoms: _63  and  _64
REMARK   28  A    between atoms: _66  and  _68
REMARK   29  A    between atoms: _68  and  _69
REMARK   30  A    between atoms: _68  and  _71
REMARK   31  A    between atoms: _71  and  _72
REMARK   32  A    between atoms: _75  and  _77
REMARK   33  A    between atoms: _77  and  _78
REMARK   34  A    between atoms: _77  and  _80
REMARK   35  A    between atoms: _80  and  _81
REMARK   36  A    between atoms: _87  and  _89
REMARK   37  A    between atoms: _89  and  _90
REMARK   38  A    between atoms: _89  and  _92
REMARK   39  A    between atoms: _92  and  _93
REMARK   40  A    between atoms: _96  and  _98
REMARK   41  A    between atoms: _98  and  _99
REMARK   42  A    between atoms: _98  and  _101
REMARK   43  A    between atoms: _101  and  _102
REMARK   44  A    between atoms: _105  and  _107
REMARK   45  A    between atoms: _107  and  _108
REMARK   46  A    between atoms: _110  and  _112
REMARK   47  A    between atoms: _112  and  _113
REMARK   48  A    between atoms: _112  and  _115
REMARK   49  A    between atoms: _115  and  _116
REMARK   50  A    between atoms: _118  and  _120
REMARK   51  A    between atoms: _120  and  _121
REMARK   52  A    between atoms: _120  and  _123
REMARK   53  A    between atoms: _123  and  _124
REMARK   54  A    between atoms: _126  and  _128
REMARK   55  A    between atoms: _128  and  _129
REMARK   56  A    between atoms: _128  and  _131
REMARK   57  A    between atoms: _131  and  _132
REMARK   58  A    between atoms: _135  and  _137
REMARK   59  A    between atoms: _137  and  _138
REMARK   60  A    between atoms: _137  and  _140
REMARK   61  A    between atoms: _140  and  _141
REMARK   62  A    between atoms: _151  and  _153
REMARK   63  A    between atoms: _153  and  _154
REMARK   64  A    between atoms: _153  and  _156
REMARK   65  A    between atoms: _156  and  _157
REMARK   66  A    between atoms: _159  and  _161
REMARK   67  A    between atoms: _161  and  _162
REMARK   68  A    between atoms: _161  and  _164
REMARK   69  A    between atoms: _164  and  _165
REMARK   70  A    between atoms: _168  and  _170
REMARK   71  A    between atoms: _170  and  _171
REMARK   72  A    between atoms: _170  and  _173
REMARK   73  A    between atoms: _173  and  _174
REMARK   74  A    between atoms: _176  and  _178
REMARK   75  A    between atoms: _178  and  _179
REMARK   76  A    between atoms: _178  and  _181
REMARK   77  A    between atoms: _181  and  _182
REMARK   78  A    between atoms: _187  and  _188
REMARK   79  A    between atoms: _190  and  _192
REMARK   80  A    between atoms: _192  and  _193
REMARK   81  A    between atoms: _195  and  _197
REMARK   82  A    between atoms: _197  and  _198
REMARK   83  A    between atoms: _197  and  _200
REMARK   84  A    between atoms: _200  and  _201
REMARK   85  A    between atoms: _204  and  _206
REMARK   86  A    between atoms: _206  and  _207
REMARK   87  A    between atoms: _209  and  _211
REMARK   88  A    between atoms: _211  and  _212
REMARK   89  A    between atoms: _211  and  _214
REMARK   90  A    between atoms: _214  and  _215
REMARK   91  A    between atoms: _217  and  _219
REMARK   92  A    between atoms: _219  and  _220
REMARK   93  A    between atoms: _219  and  _222
REMARK   94  A    between atoms: _222  and  _223
REMARK   95  A    between atoms: _225  and  _227
REMARK   96  A    between atoms: _227  and  _228
REMARK   97  A    between atoms: _227  and  _230
REMARK   98  A    between atoms: _230  and  _231
REMARK   99  A    between atoms: _233  and  _235
REMARK  100  A    between atoms: _235  and  _236
REMARK  101  A    between atoms: _235  and  _238
REMARK  102  A    between atoms: _238  and  _239
REMARK  103  A    between atoms: _241  and  _243
REMARK  104  A    between atoms: _243  and  _244
REMARK  105  A    between atoms: _243  and  _246
REMARK  106  A    between atoms: _246  and  _247
REMARK  107  A    between atoms: _249  and  _251
REMARK  108  A    between atoms: _251  and  _252
REMARK  109  A    between atoms: _251  and  _254
REMARK  110  A    between atoms: _254  and  _255
REMARK  111  A    between atoms: _261  and  _263
REMARK  112  A    between atoms: _263  and  _264
REMARK  113  A    between atoms: _263  and  _266
REMARK  114  A    between atoms: _266  and  _267
REMARK  115  A    between atoms: _270  and  _272
REMARK  116  A    between atoms: _272  and  _273
REMARK  117  A    between atoms: _272  and  _275
REMARK  118  A    between atoms: _275  and  _276
REMARK  119  A    between atoms: _279  and  _281
REMARK  120  A    between atoms: _281  and  _282
REMARK  121  A    between atoms: _281  and  _284
REMARK  122  A    between atoms: _284  and  _285
REMARK  123  A    between atoms: _288  and  _290
REMARK  124  A    between atoms: _290  and  _291
REMARK  125  A    between atoms: _293  and  _295
REMARK  126  A    between atoms: _295  and  _296
REMARK  127  A    between atoms: _295  and  _298
REMARK  128  A    between atoms: _298  and  _299
REMARK  129  A    between atoms: _302  and  _304
REMARK  130  A    between atoms: _304  and  _305
REMARK  131  A    between atoms: _304  and  _307
REMARK  132  A    between atoms: _307  and  _308
REMARK  133  A    between atoms: _311  and  _313
REMARK  134  A    between atoms: _313  and  _314
REMARK  135  A    between atoms: _316  and  _318
REMARK  136  A    between atoms: _318  and  _319
REMARK  137  A    between atoms: _318  and  _321
REMARK  138  A    between atoms: _321  and  _322
REMARK  139  A    between atoms: _325  and  _327
REMARK  140  A    between atoms: _327  and  _328
REMARK  141  A    between atoms: _331  and  _333
REMARK  142  A    between atoms: _333  and  _334
REMARK  143  A    between atoms: _333  and  _336
REMARK  144  A    between atoms: _336  and  _337
REMARK  145  A    between atoms: _343  and  _345
REMARK  146  A    between atoms: _345  and  _346
REMARK  147  A    between atoms: _345  and  _348
REMARK  148  A    between atoms: _348  and  _349
REMARK  149  A    between atoms: _352  and  _354
REMARK  150  A    between atoms: _354  and  _355
REMARK  151  A    between atoms: _354  and  _357
REMARK  152  A    between atoms: _357  and  _358
REMARK  153  A    between atoms: _363  and  _365
REMARK  154  A    between atoms: _365  and  _366
REMARK  155  A    between atoms: _365  and  _368
REMARK  156  A    between atoms: _368  and  _369
REMARK  157  A    between atoms: _372  and  _374
REMARK  158  A    between atoms: _374  and  _375
REMARK  159  A    between atoms: _374  and  _377
REMARK  160  A    between atoms: _377  and  _378
REMARK  161  A    between atoms: _378  and  _379
REMARK  162  A    between atoms: _384  and  _386
REMARK  163  A    between atoms: _386  and  _387
REMARK  164  A    between atoms: _389  and  _391
REMARK  165  A    between atoms: _391  and  _392
REMARK  166  A    between atoms: _391  and  _394
REMARK  167  A    between atoms: _394  and  _395
REMARK  168  A    between atoms: _401  and  _403
REMARK  169  A    between atoms: _403  and  _404
REMARK  170  A    between atoms: _403  and  _406
REMARK  171  A    between atoms: _406  and  _407
REMARK  172  A    between atoms: _417  and  _419
REMARK  173  A    between atoms: _419  and  _420
REMARK  174  A    between atoms: _419  and  _422
REMARK  175  A    between atoms: _422  and  _423
REMARK  176  A    between atoms: _426  and  _428
REMARK  177  A    between atoms: _428  and  _429
REMARK  178  A    between atoms: _432  and  _434
REMARK  179  A    between atoms: _434  and  _435
REMARK  180  A    between atoms: _434  and  _437
REMARK  181  A    between atoms: _437  and  _438
REMARK  182  A    between atoms: _441  and  _443
REMARK  183  A    between atoms: _443  and  _444
REMARK  184  A    between atoms: _443  and  _446
REMARK  185  A    between atoms: _446  and  _447
REMARK  186  A    between atoms: _450  and  _452
REMARK  187  A    between atoms: _452  and  _453
REMARK  188  A    between atoms: _455  and  _457
REMARK  189  A    between atoms: _457  and  _458
REMARK  190  A    between atoms: _457  and  _460
REMARK  191  A    between atoms: _460  and  _461
REMARK  192  A    between atoms: _464  and  _466
REMARK  193  A    between atoms: _466  and  _467
REMARK  194  A    between atoms: _466  and  _469
REMARK  195  A    between atoms: _469  and  _470
REMARK  196  A    between atoms: _473  and  _475
REMARK  197  A    between atoms: _475  and  _476
REMARK  198  A    between atoms: _475  and  _478
REMARK  199  A    between atoms: _478  and  _479
REMARK  200  A    between atoms: _482  and  _484
REMARK  201  A    between atoms: _484  and  _485
REMARK  202  A    between atoms: _484  and  _487
REMARK  203  A    between atoms: _487  and  _488
REMARK  204  A    between atoms: _491  and  _493
REMARK  205  A    between atoms: _493  and  _494
REMARK  206  A    between atoms: _493  and  _496
REMARK  207  A    between atoms: _496  and  _497
REMARK  208  A    between atoms: _502  and  _503
REMARK  209  A    between atoms: _505  and  _507
REMARK  210  A    between atoms: _507  and  _508
REMARK  211  A    between atoms: _507  and  _510
REMARK  212  A    between atoms: _510  and  _511
REMARK  213  A    between atoms: _517  and  _519
REMARK  214  A    between atoms: _519  and  _520
REMARK  215  A    between atoms: _519  and  _522
REMARK  216  A    between atoms: _522  and  _523
REMARK  217  A    between atoms: _526  and  _528
REMARK  218  A    between atoms: _528  and  _529
REMARK  219  A    between atoms: _531  and  _533
REMARK  220  A    between atoms: _533  and  _534
REMARK  221  A    between atoms: _533  and  _536
REMARK  222  A    between atoms: _536  and  _537
REMARK  223  A    between atoms: _540  and  _542
REMARK  224  A    between atoms: _542  and  _543
REMARK  225  A    between atoms: _542  and  _545
REMARK  226  A    between atoms: _545  and  _546
REMARK  227  A    between atoms: _551  and  _553
REMARK  228  A    between atoms: _553  and  _554
REMARK  229  A    between atoms: _553  and  _556
REMARK  230  A    between atoms: _556  and  _557
REMARK  231  A    between atoms: _560  and  _562
REMARK  232  A    between atoms: _562  and  _563
REMARK  233  A    between atoms: _562  and  _565
REMARK  234  A    between atoms: _565  and  _566
REMARK  235  A    between atoms: _572  and  _574
REMARK  236  A    between atoms: _574  and  _575
REMARK  237  A    between atoms: _577  and  _579
REMARK  238  A    between atoms: _579  and  _580
REMARK  239  A    between atoms: _579  and  _582
REMARK  240  A    between atoms: _582  and  _583
REMARK  241  A    between atoms: _586  and  _588
REMARK  242  A    between atoms: _588  and  _589
REMARK  243  A    between atoms: _588  and  _591
REMARK                            x       y       z     vdW  Elec       q    Type
REMARK                         _______ _______ _______ _____ _____    ______ ____
ROOT
ATOM      1  CA  ASP A   1     -10.068  -5.558  11.642  0.00  0.00    +0.144 C 
ENDROOT
BRANCH   1   2
ATOM      2  N   ASP A   1     -10.931  -4.865  12.592  0.00  0.00    -0.239 NA
ATOM      3  H   ASP A   1     -10.510  -4.378  13.408  0.00  0.00    +0.142 HD
ENDBRANCH   1   2
BRANCH   1   4
ATOM      4  C   ASP A   1      -9.457  -6.803  12.271  0.00  0.00    +0.225 C 
ATOM      5  O   ASP A   1      -8.457  -6.730  12.985  0.00  0.00    -0.287 OA
ENDBRANCH   1   4
BRANCH   1   6
ATOM      6  CB  ASP A   1      -8.973  -4.639  11.122  0.00  0.00    +0.139 C 
BRANCH   6   7
ATOM      7  CG  ASP A   1      -8.106  -5.310  10.086  0.00  0.00    +0.367 C 
ATOM      8  OD2 ASP A   1      -8.402  -6.470   9.723  0.00  0.00    -0.246 OA
ATOM      9  OD1 ASP A   1      -7.133  -4.678   9.623  0.00  0.00    -0.246 OA
ENDBRANCH   6   7
ENDBRANCH   1   6
TORSDOF 4
REMARK  Name = ../refined-set-2016/3pww/3pww_pocket.pdb
REMARK  243 active torsions:
REMARK  status: ('A' for Active; 'I' for Inactive)
REMARK    1  A    between atoms: _1  and  _3
REMARK    2  A    between atoms: _3  and  _4
REMARK    3  A    between atoms: _3  and  _6
REMARK    4  A    between atoms: _6  and  _7
REMARK    5  A    between atoms: _10  and  _12
REMARK    6  A    between atoms: _12  and  _13
REMARK    7  A    between atoms: _12  and  _15
REMARK    8  A    between atoms: _15  and  _16
REMARK    9  A    between atoms: _19  and  _21
REMARK   10  A    between atoms: _21  and  _22
REMARK   11  A    between atoms: _21  and  _24
REMARK   12  A    between atoms: _24  and  _25
REMARK   13  A    between atoms: _28  and  _30
REMARK   14  A    between atoms: _30  and  _31
REMARK   15  A    between atoms: _30  and  _33
REMARK   16  A    between atoms: _33  and  _34
REMARK   17  A    between atoms: _37  and  _39
REMARK   18  A    between atoms: _39  and  _40
REMARK   19  A    between atoms: _39  and  _42
REMARK   20  A    between atoms: _42  and  _43
REMARK   21  A    between atoms: _46  and  _48
REMARK   22  A    between atoms: _48  and  _49
REMARK   23  A    between atoms: _52  and  _54
REMARK   24  A    between atoms: _54  and  _55
REMARK   25  A    between atoms: _54  and  _57
REMARK   26  A    between atoms: _57  and  _58
REMARK   27  A    between atoms: _63  and  _64
REMARK   28  A    between atoms: _66  and  _68
REMARK   29  A    between atoms: _68  and  _69
REMARK   30  A    between atoms: _68  and  _71
REMARK   31  A    between atoms: _71  and  _72
REMARK   32  A    between atoms: _75  and  _77
REMARK   33  A    between atoms: _77  and  _78
REMARK   34  A    between atoms: _77  and  _80
REMARK   35  A    between atoms: _80  and  _81
REMARK   36  A    between atoms: _87  and  _89
REMARK   37  A    between atoms: _89  and  _90
REMARK   38  A    between atoms: _89  and  _92
REMARK   39  A    between atoms: _92  and  _93
REMARK   40  A    between atoms: _96  and  _98
REMARK   41  A    between atoms: _98  and  _99
REMARK   42  A    between atoms: _98  and  _101
REMARK   43  A    between atoms: _101  and  _102
REMARK   44  A    between atoms: _105  and  _107
REMARK   45  A    between atoms: _107  and  _108
REMARK   46  A    between atoms: _110  and  _112
REMARK   47  A    between atoms: _112  and  _113
REMARK   48  A    between atoms: _112  and  _115
REMARK   49  A    between atoms: _115  and  _116
REMARK   50  A    between atoms: _118  and  _120
REMARK   51  A    between atoms: _120  and  _121
REMARK   52  A    between atoms: _120  and  _123
REMARK   53  A    between atoms: _123  and  _124
REMARK   54  A    between atoms: _126  and  _128
REMARK   55  A    between atoms: _128  and  _129
REMARK   56  A    between atoms: _128  and  _131
REMARK   57  A    between atoms: _131  and  _132
REMARK   58  A    between atoms: _135  and  _137
REMARK   59  A    between atoms: _137  and  _138
REMARK   60  A    between atoms: _137  and  _140
REMARK   61  A    between atoms: _140  and  _141
REMARK   62  A    between atoms: _151  and  _153
REMARK   63  A    between atoms: _153  and  _154
REMARK   64  A    between atoms: _153  and  _156
REMARK   65  A    between atoms: _156  and  _157
REMARK   66  A    between atoms: _159  and  _161
REMARK   67  A    between atoms: _161  and  _162
REMARK   68  A    between atoms: _161  and  _164
REMARK   69  A    between atoms: _164  and  _165
REMARK   70  A    between atoms: _168  and  _170
REMARK   71  A    between atoms: _170  and  _171
REMARK   72  A    between atoms: _170  and  _173
REMARK   73  A    between atoms: _173  and  _174
REMARK   74  A    between atoms: _176  and  _178
REMARK   75  A    between atoms: _178  and  _179
REMARK   76  A    between atoms: _178  and  _181
REMARK   77  A    between atoms: _181  and  _182
REMARK   78  A    between atoms: _187  and  _188
REMARK   79  A    between atoms: _190  and  _192
REMARK   80  A    between atoms: _192  and  _193
REMARK   81  A    between atoms: _195  and  _197
REMARK   82  A    between atoms: _197  and  _198
REMARK   83  A    between atoms: _197  and  _200
REMARK   84  A    between atoms: _200  and  _201
REMARK   85  A    between atoms: _204  and  _206
REMARK   86  A    between atoms: _206  and  _207
REMARK   87  A    between atoms: _209  and  _211
REMARK   88  A    between atoms: _211  and  _212
REMARK   89  A    between atoms: _211  and  _214
REMARK   90  A    between atoms: _214  and  _215
REMARK   91  A    between atoms: _217  and  _219
REMARK   92  A    between atoms: _219  and  _220
REMARK   93  A    between atoms: _219  and  _222
REMARK   94  A    between atoms: _222  and  _223
REMARK   95  A    between atoms: _225  and  _227
REMARK   96  A    between atoms: _227  and  _228
REMARK   97  A    between atoms: _227  and  _230
REMARK   98  A    between atoms: _230  and  _231
REMARK   99  A    between atoms: _233  and  _235
REMARK  100  A    between atoms: _235  and  _236
REMARK  101  A    between atoms: _235  and  _238
REMARK  102  A    between atoms: _238  and  _239
REMARK  103  A    between atoms: _241  and  _243
REMARK  104  A    between atoms: _243  and  _244
REMARK  105  A    between atoms: _243  and  _246
REMARK  106  A    between atoms: _246  and  _247
REMARK  107  A    between atoms: _249  and  _251
REMARK  108  A    between atoms: _251  and  _252
REMARK  109  A    between atoms: _251  and  _254
REMARK  110  A    between atoms: _254  and  _255
REMARK  111  A    between atoms: _261  and  _263
REMARK  112  A    between atoms: _263  and  _264
REMARK  113  A    between atoms: _263  and  _266
REMARK  114  A    between atoms: _266  and  _267
REMARK  115  A    between atoms: _270  and  _272
REMARK  116  A    between atoms: _272  and  _273
REMARK  117  A    between atoms: _272  and  _275
REMARK  118  A    between atoms: _275  and  _276
REMARK  119  A    between atoms: _279  and  _281
REMARK  120  A    between atoms: _281  and  _282
REMARK  121  A    between atoms: _281  and  _284
REMARK  122  A    between atoms: _284  and  _285
REMARK  123  A    between atoms: _288  and  _290
REMARK  124  A    between atoms: _290  and  _291
REMARK  125  A    between atoms: _293  and  _295
REMARK  126  A    between atoms: _295  and  _296
REMARK  127  A    between atoms: _295  and  _298
REMARK  128  A    between atoms: _298  and  _299
REMARK  129  A    between atoms: _302  and  _304
REMARK  130  A    between atoms: _304  and  _305
REMARK  131  A    between atoms: _304  and  _307
REMARK  132  A    between atoms: _307  and  _308
REMARK  133  A    between atoms: _311  and  _313
REMARK  134  A    between atoms: _313  and  _314
REMARK  135  A    between atoms: _316  and  _318
REMARK  136  A    between atoms: _318  and  _319
REMARK  137  A    between atoms: _318  and  _321
REMARK  138  A    between atoms: _321  and  _322
REMARK  139  A    between atoms: _325  and  _327
REMARK  140  A    between atoms: _327  and  _328
REMARK  141  A    between atoms: _331  and  _333
REMARK  142  A    between atoms: _333  and  _334
REMARK  143  A    between atoms: _333  and  _336
REMARK  144  A    between atoms: _336  and  _337
REMARK  145  A    between atoms: _343  and  _345
REMARK  146  A    between atoms: _345  and  _346
REMARK  147  A    between atoms: _345  and  _348
REMARK  148  A    between atoms: _348  and  _349
REMARK  149  A    between atoms: _352  and  _354
REMARK  150  A    between atoms: _354  and  _355
REMARK  151  A    between atoms: _354  and  _357
REMARK  152  A    between atoms: _357  and  _358
REMARK  153  A    between atoms: _363  and  _365
REMARK  154  A    between atoms: _365  and  _366
REMARK  155  A    between atoms: _365  and  _368
REMARK  156  A    between atoms: _368  and  _369
REMARK  157  A    between atoms: _372  and  _374
REMARK  158  A    between atoms: _374  and  _375
REMARK  159  A    between atoms: _374  and  _377
REMARK  160  A    between atoms: _377  and  _378
REMARK  161  A    between atoms: _378  and  _379
REMARK  162  A    between atoms: _384  and  _386
REMARK  163  A    between atoms: _386  and  _387
REMARK  164  A    between atoms: _389  and  _391
REMARK  165  A    between atoms: _391  and  _392
REMARK  166  A    between atoms: _391  and  _394
REMARK  167  A    between atoms: _394  and  _395
REMARK  168  A    between atoms: _401  and  _403
REMARK  169  A    between atoms: _403  and  _404
REMARK  170  A    between atoms: _403  and  _406
REMARK  171  A    between atoms: _406  and  _407
REMARK  172  A    between atoms: _417  and  _419
REMARK  173  A    between atoms: _419  and  _420
REMARK  174  A    between atoms: _419  and  _422
REMARK  175  A    between atoms: _422  and  _423
REMARK  176  A    between atoms: _426  and  _428
REMARK  177  A    between atoms: _428  and  _429
REMARK  178  A    between atoms: _432  and  _434
REMARK  179  A    between atoms: _434  and  _435
REMARK  180  A    between atoms: _434  and  _437
REMARK  181  A    between atoms: _437  and  _438
REMARK  182  A    between atoms: _441  and  _443
REMARK  183  A    between atoms: _443  and  _444
REMARK  184  A    between atoms: _443  and  _446
REMARK  185  A    between atoms: _446  and  _447
REMARK  186  A    between atoms: _450  and  _452
REMARK  187  A    between atoms: _452  and  _453
REMARK  188  A    between atoms: _455  and  _457
REMARK  189  A    between atoms: _457  and  _458
REMARK  190  A    between atoms: _457  and  _460
REMARK  191  A    between atoms: _460  and  _461
REMARK  192  A    between atoms: _464  and  _466
REMARK  193  A    between atoms: _466  and  _467
REMARK  194  A    between atoms: _466  and  _469
REMARK  195  A    between atoms: _469  and  _470
REMARK  196  A    between atoms: _473  and  _475
REMARK  197  A    between atoms: _475  and  _476
REMARK  198  A    between atoms: _475  and  _478
REMARK  199  A    between atoms: _478  and  _479
REMARK  200  A    between atoms: _482  and  _484
REMARK  201  A    between atoms: _484  and  _485
REMARK  202  A    between atoms: _484  and  _487
REMARK  203  A    between atoms: _487  and  _488
REMARK  204  A    between atoms: _491  and  _493
REMARK  205  A    between atoms: _493  and  _494
REMARK  206  A    between atoms: _493  and  _496
REMARK  207  A    between atoms: _496  and  _497
REMARK  208  A    between atoms: _502  and  _503
REMARK  209  A    between atoms: _505  and  _507
REMARK  210  A    between atoms: _507  and  _508
REMARK  211  A    between atoms: _507  and  _510
REMARK  212  A    between atoms: _510  and  _511
REMARK  213  A    between atoms: _517  and  _519
REMARK  214  A    between atoms: _519  and  _520
REMARK  215  A    between atoms: _519  and  _522
REMARK  216  A    between atoms: _522  and  _523
REMARK  217  A    between atoms: _526  and  _528
REMARK  218  A    between atoms: _528  and  _529
REMARK  219  A    between atoms: _531  and  _533
REMARK  220  A    between atoms: _533  and  _534
REMARK  221  A    between atoms: _533  and  _536
REMARK  222  A    between atoms: _536  and  _537
REMARK  223  A    between atoms: _540  and  _542
REMARK  224  A    between atoms: _542  and  _543
REMARK  225  A    between atoms: _542  and  _545
REMARK  226  A    between atoms: _545  and  _546
REMARK  227  A    between atoms: _551  and  _553
REMARK  228  A    between atoms: _553  and  _554
REMARK  229  A    between atoms: _553  and  _556
REMARK  230  A    between atoms: _556  and  _557
REMARK  231  A    between atoms: _560  and  _562
REMARK  232  A    between atoms: _562  and  _563
REMARK  233  A    between atoms: _562  and  _565
REMARK  234  A    between atoms: _565  and  _566
REMARK  235  A    between atoms: _572  and  _574
REMARK  236  A    between atoms: _574  and  _575
REMARK  237  A    between atoms: _577  and  _579
REMARK  238  A    between atoms: _579  and  _580
REMARK  239  A    between atoms: _579  and  _582
REMARK  240  A    between atoms: _582  and  _583
REMARK  241  A    between atoms: _586  and  _588
REMARK  242  A    between atoms: _588  and  _589
REMARK  243  A    between atoms: _588  and  _591
REMARK                            x       y       z     vdW  Elec       q    Type
REMARK                         _______ _______ _______ _____ _____    ______ ____
ROOT
ATOM      1  C   THR A   1      -5.287  -9.131  10.935  0.00  0.00    +0.241 C 
ATOM      2  N   ILE A   2      -5.362  -8.028  11.673  0.00  0.00    -0.298 N 
ATOM      3  H   ILE A   2      -6.295  -7.631  11.905  0.00  0.00    +0.150 HD
ATOM      4  O   THR A   1      -4.218  -9.674  10.657  0.00  0.00    -0.274 OA
ENDROOT
BRANCH   1   5
ATOM      5  CA  THR A   1      -6.600  -9.707  10.413  0.00  0.00    +0.172 C 
BRANCH   5   6
ATOM      6  N   THR A   1      -7.801  -9.163  11.056  0.00  0.00    -0.236 NA
ATOM      7  H   THR A   1      -8.257  -8.322  10.650  0.00  0.00    +0.142 HD
ENDBRANCH   5   6
BRANCH   5   8
ATOM      8  CB  THR A   1      -6.637  -9.506   8.879  0.00  0.00    +0.135 C 
ATOM      9  CG2 THR A   1      -7.947 -10.035   8.297  0.00  0.00    +0.034 C 
BRANCH   8  10
ATOM     10  OG1 THR A   1      -6.494  -8.116   8.558  0.00  0.00    -0.383 OA
ATOM     11  HG1 THR A   1      -7.235  -7.605   8.970  0.00  0.00    +0.210 HD
ENDBRANCH   8  10
ENDBRANCH   5   8
ENDBRANCH   1   5
BRANCH   2  12
ATOM     12  CA  ILE A   2      -4.155  -7.361  12.166  0.00  0.00    +0.137 C 
BRANCH  12  13
ATOM     13  C   ILE A   2      -4.071  -7.521  13.677  0.00  0.00    +0.227 C 
ATOM     14  O   ILE A   2      -4.924  -7.014  14.408  0.00  0.00    -0.286 OA
ENDBRANCH  12  13
BRANCH  12  15
ATOM     15  CB  ILE A   2      -4.122  -5.868  11.743  0.00  0.00    +0.026 C 
ATOM     16  CG2 ILE A   2      -2.993  -5.122  12.450  0.00  0.00    +0.002 C 
BRANCH  15  17
ATOM     17  CG1 ILE A   2      -3.960  -5.771  10.221  0.00  0.00    +0.002 C 
ATOM     18  CD1 ILE A   2      -3.971  -4.359   9.658  0.00  0.00    +0.000 C 
ENDBRANCH  15  17
ENDBRANCH  12  15
ENDBRANCH   2  12
TORSDOF 8
REMARK  Name = ../refined-set-2016/3pww/3pww_pocket.pdb
REMARK  243 active torsions:
REMARK  status: ('A' for Active; 'I' for Inactive)
REMARK    1  A    between atoms: _1  and  _3
REMARK    2  A    between atoms: _3  and  _4
REMARK    3  A    between atoms: _3  and  _6
REMARK    4  A    between atoms: _6  and  _7
REMARK    5  A    between atoms: _10  and  _12
REMARK    6  A    between atoms: _12  and  _13
REMARK    7  A    between atoms: _12  and  _15
REMARK    8  A    between atoms: _15  and  _16
REMARK    9  A    between atoms: _19  and  _21
REMARK   10  A    between atoms: _21  and  _22
REMARK   11  A    between atoms: _21  and  _24
REMARK   12  A    between atoms: _24  and  _25
REMARK   13  A    between atoms: _28  and  _30
REMARK   14  A    between atoms: _30  and  _31
REMARK   15  A    between atoms: _30  and  _33
REMARK   16  A    between atoms: _33  and  _34
REMARK   17  A    between atoms: _37  and  _39
REMARK   18  A    between atoms: _39  and  _40
REMARK   19  A    between atoms: _39  and  _42
REMARK   20  A    between atoms: _42  and  _43
REMARK   21  A    between atoms: _46  and  _48
REMARK   22  A    between atoms: _48  and  _49
REMARK   23  A    between atoms: _52  and  _54
REMARK   24  A    between atoms: _54  and  _55
REMARK   25  A    between atoms: _54  and  _57
REMARK   26  A    between atoms: _57  and  _58
REMARK   27  A    between atoms: _63  and  _64
REMARK   28  A    between atoms: _66  and  _68
REMARK   29  A    between atoms: _68  and  _69
REMARK   30  A    between atoms: _68  and  _71
REMARK   31  A    between atoms: _71  and  _72
REMARK   32  A    between atoms: _75  and  _77
REMARK   33  A    between atoms: _77  and  _78
REMARK   34  A    between atoms: _77  and  _80
REMARK   35  A    between atoms: _80  and  _81
REMARK   36  A    between atoms: _87  and  _89
REMARK   37  A    between atoms: _89  and  _90
REMARK   38  A    between atoms: _89  and  _92
REMARK   39  A    between atoms: _92  and  _93
REMARK   40  A    between atoms: _96  and  _98
REMARK   41  A    between atoms: _98  and  _99
REMARK   42  A    between atoms: _98  and  _101
REMARK   43  A    between atoms: _101  and  _102
REMARK   44  A    between atoms: _105  and  _107
REMARK   45  A    between atoms: _107  and  _108
REMARK   46  A    between atoms: _110  and  _112
REMARK   47  A    between atoms: _112  and  _113
REMARK   48  A    between atoms: _112  and  _115
REMARK   49  A    between atoms: _115  and  _116
REMARK   50  A    between atoms: _118  and  _120
REMARK   51  A    between atoms: _120  and  _121
REMARK   52  A    between atoms: _120  and  _123
REMARK   53  A    between atoms: _123  and  _124
REMARK   54  A    between atoms: _126  and  _128
REMARK   55  A    between atoms: _128  and  _129
REMARK   56  A    between atoms: _128  and  _131
REMARK   57  A    between atoms: _131  and  _132
REMARK   58  A    between atoms: _135  and  _137
REMARK   59  A    between atoms: _137  and  _138
REMARK   60  A    between atoms: _137  and  _140
REMARK   61  A    between atoms: _140  and  _141
REMARK   62  A    between atoms: _151  and  _153
REMARK   63  A    between atoms: _153  and  _154
REMARK   64  A    between atoms: _153  and  _156
REMARK   65  A    between atoms: _156  and  _157
REMARK   66  A    between atoms: _159  and  _161
REMARK   67  A    between atoms: _161  and  _162
REMARK   68  A    between atoms: _161  and  _164
REMARK   69  A    between atoms: _164  and  _165
REMARK   70  A    between atoms: _168  and  _170
REMARK   71  A    between atoms: _170  and  _171
REMARK   72  A    between atoms: _170  and  _173
REMARK   73  A    between atoms: _173  and  _174
REMARK   74  A    between atoms: _176  and  _178
REMARK   75  A    between atoms: _178  and  _179
REMARK   76  A    between atoms: _178  and  _181
REMARK   77  A    between atoms: _181  and  _182
REMARK   78  A    between atoms: _187  and  _188
REMARK   79  A    between atoms: _190  and  _192
REMARK   80  A    between atoms: _192  and  _193
REMARK   81  A    between atoms: _195  and  _197
REMARK   82  A    between atoms: _197  and  _198
REMARK   83  A    between atoms: _197  and  _200
REMARK   84  A    between atoms: _200  and  _201
REMARK   85  A    between atoms: _204  and  _206
REMARK   86  A    between atoms: _206  and  _207
REMARK   87  A    between atoms: _209  and  _211
REMARK   88  A    between atoms: _211  and  _212
REMARK   89  A    between atoms: _211  and  _214
REMARK   90  A    between atoms: _214  and  _215
REMARK   91  A    between atoms: _217  and  _219
REMARK   92  A    between atoms: _219  and  _220
REMARK   93  A    between atoms: _219  and  _222
REMARK   94  A    between atoms: _222  and  _223
REMARK   95  A    between atoms: _225  and  _227
REMARK   96  A    between atoms: _227  and  _228
REMARK   97  A    between atoms: _227  and  _230
REMARK   98  A    between atoms: _230  and  _231
REMARK   99  A    between atoms: _233  and  _235
REMARK  100  A    between atoms: _235  and  _236
REMARK  101  A    between atoms: _235  and  _238
REMARK  102  A    between atoms: _238  and  _239
REMARK  103  A    between atoms: _241  and  _243
REMARK  104  A    between atoms: _243  and  _244
REMARK  105  A    between atoms: _243  and  _246
REMARK  106  A    between atoms: _246  and  _247
REMARK  107  A    between atoms: _249  and  _251
REMARK  108  A    between atoms: _251  and  _252
REMARK  109  A    between atoms: _251  and  _254
REMARK  110  A    between atoms: _254  and  _255
REMARK  111  A    between atoms: _261  and  _263
REMARK  112  A    between atoms: _263  and  _264
REMARK  113  A    between atoms: _263  and  _266
REMARK  114  A    between atoms: _266  and  _267
REMARK  115  A    between atoms: _270  and  _272
REMARK  116  A    between atoms: _272  and  _273
REMARK  117  A    between atoms: _272  and  _275
REMARK  118  A    between atoms: _275  and  _276
REMARK  119  A    between atoms: _279  and  _281
REMARK  120  A    between atoms: _281  and  _282
REMARK  121  A    between atoms: _281  and  _284
REMARK  122  A    between atoms: _284  and  _285
REMARK  123  A    between atoms: _288  and  _290
REMARK  124  A    between atoms: _290  and  _291
REMARK  125  A    between atoms: _293  and  _295
REMARK  126  A    between atoms: _295  and  _296
REMARK  127  A    between atoms: _295  and  _298
REMARK  128  A    between atoms: _298  and  _299
REMARK  129  A    between atoms: _302  and  _304
REMARK  130  A    between atoms: _304  and  _305
REMARK  131  A    between atoms: _304  and  _307
REMARK  132  A    between atoms: _307  and  _308
REMARK  133  A    between atoms: _311  and  _313
REMARK  134  A    between atoms: _313  and  _314
REMARK  135  A    between atoms: _316  and  _318
REMARK  136  A    between atoms: _318  and  _319
REMARK  137  A    between atoms: _318  and  _321
REMARK  138  A    between atoms: _321  and  _322
REMARK  139  A    between atoms: _325  and  _327
REMARK  140  A    between atoms: _327  and  _328
REMARK  141  A    between atoms: _331  and  _333
REMARK  142  A    between atoms: _333  and  _334
REMARK  143  A    between atoms: _333  and  _336
REMARK  144  A    between atoms: _336  and  _337
REMARK  145  A    between atoms: _343  and  _345
REMARK  146  A    between atoms: _345  and  _346
REMARK  147  A    between atoms: _345  and  _348
REMARK  148  A    between atoms: _348  and  _349
REMARK  149  A    between atoms: _352  and  _354
REMARK  150  A    between atoms: _354  and  _355
REMARK  151  A    between atoms: _354  and  _357
REMARK  152  A    between atoms: _357  and  _358
REMARK  153  A    between atoms: _363  and  _365
REMARK  154  A    between atoms: _365  and  _366
REMARK  155  A    between atoms: _365  and  _368
REMARK  156  A    between atoms: _368  and  _369
REMARK  157  A    between atoms: _372  and  _374
REMARK  158  A    between atoms: _374  and  _375
REMARK  159  A    between atoms: _374  and  _377
REMARK  160  A    between atoms: _377  and  _378
REMARK  161  A    between atoms: _378  and  _379
REMARK  162  A    between atoms: _384  and  _386
REMARK  163  A    between atoms: _386  and  _387
REMARK  164  A    between atoms: _389  and  _391
REMARK  165  A    between atoms: _391  and  _392
REMARK  166  A    between atoms: _391  and  _394
REMARK  167  A    between atoms: _394  and  _395
REMARK  168  A    between atoms: _401  and  _403
REMARK  169  A    between atoms: _403  and  _404
REMARK  170  A    between atoms: _403  and  _406
REMARK  171  A    between atoms: _406  and  _407
REMARK  172  A    between atoms: _417  and  _419
REMARK  173  A    between atoms: _419  and  _420
REMARK  174  A    between atoms: _419  and  _422
REMARK  175  A    between atoms: _422  and  _423
REMARK  176  A    between atoms: _426  and  _428
REMARK  177  A    between atoms: _428  and  _429
REMARK  178  A    between atoms: _432  and  _434
REMARK  179  A    between atoms: _434  and  _435
REMARK  180  A    between atoms: _434  and  _437
REMARK  181  A    between atoms: _437  and  _438
REMARK  182  A    between atoms: _441  and  _443
REMARK  183  A    between atoms: _443  and  _444
REMARK  184  A    between atoms: _443  and  _446
REMARK  185  A    between atoms: _446  and  _447
REMARK  186  A    between atoms: _450  and  _452
REMARK  187  A    between atoms: _452  and  _453
REMARK  188  A    between atoms: _455  and  _457
REMARK  189  A    between atoms: _457  and  _458
REMARK  190  A    between atoms: _457  and  _460
REMARK  191  A    between atoms: _460  and  _461
REMARK  192  A    between atoms: _464  and  _466
REMARK  193  A    between atoms: _466  and  _467
REMARK  194  A    between atoms: _466  and  _469
REMARK  195  A    between atoms: _469  and  _470
REMARK  196  A    between atoms: _473  and  _475
REMARK  197  A    between atoms: _475  and  _476
REMARK  198  A    between atoms: _475  and  _478
REMARK  199  A    between atoms: _478  and  _479
REMARK  200  A    between atoms: _482  and  _484
REMARK  201  A    between atoms: _484  and  _485
REMARK  202  A    between atoms: _484  and  _487
REMARK  203  A    between atoms: _487  and  _488
REMARK  204  A    between atoms: _491  and  _493
REMARK  205  A    between atoms: _493  and  _494
REMARK  206  A    between atoms: _493  and  _496
REMARK  207  A    between atoms: _496  and  _497
REMARK  208  A    between atoms: _502  and  _503
REMARK  209  A    between atoms: _505  and  _507
REMARK  210  A    between atoms: _507  and  _508
REMARK  211  A    between atoms: _507  and  _510
REMARK  212  A    between atoms: _510  and  _511
REMARK  213  A    between atoms: _517  and  _519
REMARK  214  A    between atoms: _519  and  _520
REMARK  215  A    between atoms: _519  and  _522
REMARK  216  A    between atoms: _522  and  _523
REMARK  217  A    between atoms: _526  and  _528
REMARK  218  A    between atoms: _528  and  _529
REMARK  219  A    between atoms: _531  and  _533
REMARK  220  A    between atoms: _533  and  _534
REMARK  221  A    between atoms: _533  and  _536
REMARK  222  A    between atoms: _536  and  _537
REMARK  223  A    between atoms: _540  and  _542
REMARK  224  A    between atoms: _542  and  _543
REMARK  225  A    between atoms: _542  and  _545
REMARK  226  A    between atoms: _545  and  _546
REMARK  227  A    between atoms: _551  and  _553
REMARK  228  A    between atoms: _553  and  _554
REMARK  229  A    between atoms: _553  and  _556
REMARK  230  A    between atoms: _556  and  _557
REMARK  231  A    between atoms: _560  and  _562
REMARK  232  A    between atoms: _562  and  _563
REMARK  233  A    between atoms: _562  and  _565
REMARK  234  A    between atoms: _565  and  _566
REMARK  235  A    between atoms: _572  and  _574
REMARK  236  A    between atoms: _574  and  _575
REMARK  237  A    between atoms: _577  and  _579
REMARK  238  A    between atoms: _579  and  _580
REMARK  239  A    between atoms: _579  and  _582
REMARK  240  A    between atoms: _582  and  _583
REMARK  241  A    between atoms: _586  and  _588
REMARK  242  A    between atoms: _588  and  _589
REMARK  243  A    between atoms: _588  and  _591
REMARK                            x       y       z     vdW  Elec       q    Type
REMARK                         _______ _______ _______ _____ _____    ______ ____
ROOT
ATOM      1  C   GLY A   4       8.701  -0.282  13.524  0.00  0.00    +0.243 C 
ATOM      2  O   GLY A   4       9.553  -0.889  14.186  0.00  0.00    -0.273 OA
ATOM      3  N   LEU A   5       8.963   0.335  12.373  0.00  0.00    -0.297 N 
ATOM      4  H   LEU A   5       8.194   0.846  11.895  0.00  0.00    +0.150 HD
ENDROOT
BRANCH   3   5
ATOM      5  CA  LEU A   5      10.281   0.324  11.757  0.00  0.00    +0.149 C 
BRANCH   5   6
ATOM      6  C   LEU A   5      10.787   1.725  11.411  0.00  0.00    +0.241 C 
ATOM      7  N   ALA A   6      10.141   2.756  11.947  0.00  0.00    -0.297 N 
ATOM      8  H   ALA A   6       9.229   2.597  12.421  0.00  0.00    +0.150 HD
ATOM      9  O   LEU A   5      11.750   1.866  10.656  0.00  0.00    -0.273 OA
BRANCH   7  10
ATOM     10  CA  ALA A   6      10.689   4.109  11.882  0.00  0.00    +0.149 C 
ATOM     11  CB  ALA A   6       9.582   5.157  12.044  0.00  0.00    +0.031 C 
BRANCH  10  12
ATOM     12  C   ALA A   6      11.767   4.256  12.964  0.00  0.00    +0.241 C 
ATOM     13  O   ALA A   6      12.161   3.275  13.595  0.00  0.00    -0.273 OA
ATOM     14  N   PHE A   7      12.241   5.470  13.192  0.00  0.00    -0.298 N 
ATOM     15  H   PHE A   7      11.825   6.289  12.704  0.00  0.00    +0.150 HD
BRANCH  14  16
ATOM     16  CA  PHE A   7      13.342   5.662  14.123  0.00  0.00    +0.141 C 
BRANCH  16  17
ATOM     17  C   PHE A   7      12.873   5.639  15.574  0.00  0.00    +0.227 C 
ATOM     18  O   PHE A   7      11.765   6.070  15.888  0.00  0.00    -0.286 OA
ENDBRANCH  16  17
BRANCH  16  19
ATOM     19  CB  PHE A   7      14.146   6.915  13.744  0.00  0.00    +0.054 C 
BRANCH  19  20
ATOM     20  CG  PHE A   7      14.836   6.773  12.415  0.00  0.00    -0.020 A 
ATOM     21  CD2 PHE A   7      16.109   6.237  12.335  0.00  0.00    -0.004 A 
ATOM     22  CE2 PHE A   7      16.730   6.057  11.106  0.00  0.00    -0.000 A 
ATOM     23  CZ  PHE A   7      16.068   6.387   9.947  0.00  0.00    -0.000 A 
ATOM     24  CE1 PHE A   7      14.793   6.903  10.010  0.00  0.00    -0.000 A 
ATOM     25  CD1 PHE A   7      14.177   7.084  11.238  0.00  0.00    -0.004 A 
ENDBRANCH  19  20
ENDBRANCH  16  19
ENDBRANCH  14  16
ENDBRANCH  10  12
ENDBRANCH   7  10
ENDBRANCH   5   6
BRANCH   5  26
ATOM     26  CB  LEU A   5      10.278  -0.559  10.510  0.00  0.00    +0.029 C 
BRANCH  26  27
ATOM     27  CG  LEU A   5      10.088  -2.045  10.813  0.00  0.00    +0.002 C 
ATOM     28  CD2 LEU A   5      11.324  -2.634  11.498  0.00  0.00    +0.000 C 
ATOM     29  CD1 LEU A   5       9.716  -2.826   9.554  0.00  0.00    +0.000 C 
ENDBRANCH  26  27
ENDBRANCH   5  26
ENDBRANCH   3   5
BRANCH   1  30
ATOM     30  CA  GLY A   4       7.265  -0.192  13.998  0.00  0.00    +0.176 C 
BRANCH  30  32
ATOM     31  C   LEU A   3       6.388  -2.436  13.687  0.00  0.00    +0.241 C 
ATOM     32  N   GLY A   4       6.755  -1.453  14.504  0.00  0.00    -0.295 N 
ATOM     33  H   GLY A   4       6.675  -1.591  15.532  0.00  0.00    +0.150 HD
ATOM     34  O   LEU A   3       6.515  -2.359  12.459  0.00  0.00    -0.273 OA
BRANCH  31  35
ATOM     35  CA  LEU A   3       5.772  -3.665  14.357  0.00  0.00    +0.149 C 
BRANCH  35  38
ATOM     36  C   LEU A   2       3.440  -3.614  15.031  0.00  0.00    +0.241 C 
ATOM     37  O   LEU A   2       3.713  -3.782  16.227  0.00  0.00    -0.273 OA
ATOM     38  N   LEU A   3       4.354  -3.637  14.064  0.00  0.00    -0.297 N 
ATOM     39  H   LEU A   3       4.042  -3.635  13.072  0.00  0.00    +0.150 HD
BRANCH  36  40
ATOM     40  CA  LEU A   2       2.011  -3.355  14.588  0.00  0.00    +0.149 C 
BRANCH  40  42
ATOM     41  C   GLY A   1       0.167  -4.890  15.073  0.00  0.00    +0.240 C 
ATOM     42  N   LEU A   2       1.064  -3.999  15.490  0.00  0.00    -0.297 N 
ATOM     43  H   LEU A   2       1.090  -3.752  16.500  0.00  0.00    +0.150 HD
ATOM     44  O   GLY A   1       0.049  -5.245  13.897  0.00  0.00    -0.274 OA
BRANCH  41  45
ATOM     45  CA  GLY A   1      -0.751  -5.460  16.134  0.00  0.00    +0.169 C 
BRANCH  45  46
ATOM     46  N   GLY A   1      -1.576  -6.509  15.567  0.00  0.00    -0.236 NA
ATOM     47  H   GLY A   1      -1.806  -6.471  14.554  0.00  0.00    +0.142 HD
ENDBRANCH  45  46
ENDBRANCH  41  45
ENDBRANCH  40  42
BRANCH  40  48
ATOM     48  CB  LEU A   2       1.774  -1.842  14.535  0.00  0.00    +0.029 C 
BRANCH  48  49
ATOM     49  CG  LEU A   2       0.784  -1.328  13.487  0.00  0.00    +0.002 C 
ATOM     50  CD2 LEU A   2      -0.629  -1.846  13.748  0.00  0.00    +0.000 C 
ATOM     51  CD1 LEU A   2       0.801   0.201  13.422  0.00  0.00    +0.000 C 
ENDBRANCH  48  49
ENDBRANCH  40  48
ENDBRANCH  36  40
ENDBRANCH  35  38
BRANCH  35  52
ATOM     52  CB  LEU A   3       6.405  -4.966  13.866  0.00  0.00    +0.029 C 
BRANCH  52  53
ATOM     53  CG  LEU A   3       7.849  -5.186  14.337  0.00  0.00    +0.002 C 
ATOM     54  CD2 LEU A   3       8.129  -6.663  14.562  0.00  0.00    +0.000 C 
ATOM     55  CD1 LEU A   3       8.864  -4.582  13.368  0.00  0.00    +0.000 C 
ENDBRANCH  52  53
ENDBRANCH  35  52
ENDBRANCH  31  35
ENDBRANCH  30  32
ENDBRANCH   1  30
TORSDOF 22
REMARK  Name = ../refined-set-2016/3pww/3pww_pocket.pdb
REMARK  243 active torsions:
REMARK  status: ('A' for Active; 'I' for Inactive)
REMARK    1  A    between atoms: _1  and  _3
REMARK    2  A    between atoms: _3  and  _4
REMARK    3  A    between atoms: _3  and  _6
REMARK    4  A    between atoms: _6  and  _7
REMARK    5  A    between atoms: _10  and  _12
REMARK    6  A    between atoms: _12  and  _13
REMARK    7  A    between atoms: _12  and  _15
REMARK    8  A    between atoms: _15  and  _16
REMARK    9  A    between atoms: _19  and  _21
REMARK   10  A    between atoms: _21  and  _22
REMARK   11  A    between atoms: _21  and  _24
REMARK   12  A    between atoms: _24  and  _25
REMARK   13  A    between atoms: _28  and  _30
REMARK   14  A    between atoms: _30  and  _31
REMARK   15  A    between atoms: _30  and  _33
REMARK   16  A    between atoms: _33  and  _34
REMARK   17  A    between atoms: _37  and  _39
REMARK   18  A    between atoms: _39  and  _40
REMARK   19  A    between atoms: _39  and  _42
REMARK   20  A    between atoms: _42  and  _43
REMARK   21  A    between atoms: _46  and  _48
REMARK   22  A    between atoms: _48  and  _49
REMARK   23  A    between atoms: _52  and  _54
REMARK   24  A    between atoms: _54  and  _55
REMARK   25  A    between atoms: _54  and  _57
REMARK   26  A    between atoms: _57  and  _58
REMARK   27  A    between atoms: _63  and  _64
REMARK   28  A    between atoms: _66  and  _68
REMARK   29  A    between atoms: _68  and  _69
REMARK   30  A    between atoms: _68  and  _71
REMARK   31  A    between atoms: _71  and  _72
REMARK   32  A    between atoms: _75  and  _77
REMARK   33  A    between atoms: _77  and  _78
REMARK   34  A    between atoms: _77  and  _80
REMARK   35  A    between atoms: _80  and  _81
REMARK   36  A    between atoms: _87  and  _89
REMARK   37  A    between atoms: _89  and  _90
REMARK   38  A    between atoms: _89  and  _92
REMARK   39  A    between atoms: _92  and  _93
REMARK   40  A    between atoms: _96  and  _98
REMARK   41  A    between atoms: _98  and  _99
REMARK   42  A    between atoms: _98  and  _101
REMARK   43  A    between atoms: _101  and  _102
REMARK   44  A    between atoms: _105  and  _107
REMARK   45  A    between atoms: _107  and  _108
REMARK   46  A    between atoms: _110  and  _112
REMARK   47  A    between atoms: _112  and  _113
REMARK   48  A    between atoms: _112  and  _115
REMARK   49  A    between atoms: _115  and  _116
REMARK   50  A    between atoms: _118  and  _120
REMARK   51  A    between atoms: _120  and  _121
REMARK   52  A    between atoms: _120  and  _123
REMARK   53  A    between atoms: _123  and  _124
REMARK   54  A    between atoms: _126  and  _128
REMARK   55  A    between atoms: _128  and  _129
REMARK   56  A    between atoms: _128  and  _131
REMARK   57  A    between atoms: _131  and  _132
REMARK   58  A    between atoms: _135  and  _137
REMARK   59  A    between atoms: _137  and  _138
REMARK   60  A    between atoms: _137  and  _140
REMARK   61  A    between atoms: _140  and  _141
REMARK   62  A    between atoms: _151  and  _153
REMARK   63  A    between atoms: _153  and  _154
REMARK   64  A    between atoms: _153  and  _156
REMARK   65  A    between atoms: _156  and  _157
REMARK   66  A    between atoms: _159  and  _161
REMARK   67  A    between atoms: _161  and  _162
REMARK   68  A    between atoms: _161  and  _164
REMARK   69  A    between atoms: _164  and  _165
REMARK   70  A    between atoms: _168  and  _170
REMARK   71  A    between atoms: _170  and  _171
REMARK   72  A    between atoms: _170  and  _173
REMARK   73  A    between atoms: _173  and  _174
REMARK   74  A    between atoms: _176  and  _178
REMARK   75  A    between atoms: _178  and  _179
REMARK   76  A    between atoms: _178  and  _181
REMARK   77  A    between atoms: _181  and  _182
REMARK   78  A    between atoms: _187  and  _188
REMARK   79  A    between atoms: _190  and  _192
REMARK   80  A    between atoms: _192  and  _193
REMARK   81  A    between atoms: _195  and  _197
REMARK   82  A    between atoms: _197  and  _198
REMARK   83  A    between atoms: _197  and  _200
REMARK   84  A    between atoms: _200  and  _201
REMARK   85  A    between atoms: _204  and  _206
REMARK   86  A    between atoms: _206  and  _207
REMARK   87  A    between atoms: _209  and  _211
REMARK   88  A    between atoms: _211  and  _212
REMARK   89  A    between atoms: _211  and  _214
REMARK   90  A    between atoms: _214  and  _215
REMARK   91  A    between atoms: _217  and  _219
REMARK   92  A    between atoms: _219  and  _220
REMARK   93  A    between atoms: _219  and  _222
REMARK   94  A    between atoms: _222  and  _223
REMARK   95  A    between atoms: _225  and  _227
REMARK   96  A    between atoms: _227  and  _228
REMARK   97  A    between atoms: _227  and  _230
REMARK   98  A    between atoms: _230  and  _231
REMARK   99  A    between atoms: _233  and  _235
REMARK  100  A    between atoms: _235  and  _236
REMARK  101  A    between atoms: _235  and  _238
REMARK  102  A    between atoms: _238  and  _239
REMARK  103  A    between atoms: _241  and  _243
REMARK  104  A    between atoms: _243  and  _244
REMARK  105  A    between atoms: _243  and  _246
REMARK  106  A    between atoms: _246  and  _247
REMARK  107  A    between atoms: _249  and  _251
REMARK  108  A    between atoms: _251  and  _252
REMARK  109  A    between atoms: _251  and  _254
REMARK  110  A    between atoms: _254  and  _255
REMARK  111  A    between atoms: _261  and  _263
REMARK  112  A    between atoms: _263  and  _264
REMARK  113  A    between atoms: _263  and  _266
REMARK  114  A    between atoms: _266  and  _267
REMARK  115  A    between atoms: _270  and  _272
REMARK  116  A    between atoms: _272  and  _273
REMARK  117  A    between atoms: _272  and  _275
REMARK  118  A    between atoms: _275  and  _276
REMARK  119  A    between atoms: _279  and  _281
REMARK  120  A    between atoms: _281  and  _282
REMARK  121  A    between atoms: _281  and  _284
REMARK  122  A    between atoms: _284  and  _285
REMARK  123  A    between atoms: _288  and  _290
REMARK  124  A    between atoms: _290  and  _291
REMARK  125  A    between atoms: _293  and  _295
REMARK  126  A    between atoms: _295  and  _296
REMARK  127  A    between atoms: _295  and  _298
REMARK  128  A    between atoms: _298  and  _299
REMARK  129  A    between atoms: _302  and  _304
REMARK  130  A    between atoms: _304  and  _305
REMARK  131  A    between atoms: _304  and  _307
REMARK  132  A    between atoms: _307  and  _308
REMARK  133  A    between atoms: _311  and  _313
REMARK  134  A    between atoms: _313  and  _314
REMARK  135  A    between atoms: _316  and  _318
REMARK  136  A    between atoms: _318  and  _319
REMARK  137  A    between atoms: _318  and  _321
REMARK  138  A    between atoms: _321  and  _322
REMARK  139  A    between atoms: _325  and  _327
REMARK  140  A    between atoms: _327  and  _328
REMARK  141  A    between atoms: _331  and  _333
REMARK  142  A    between atoms: _333  and  _334
REMARK  143  A    between atoms: _333  and  _336
REMARK  144  A    between atoms: _336  and  _337
REMARK  145  A    between atoms: _343  and  _345
REMARK  146  A    between atoms: _345  and  _346
REMARK  147  A    between atoms: _345  and  _348
REMARK  148  A    between atoms: _348  and  _349
REMARK  149  A    between atoms: _352  and  _354
REMARK  150  A    between atoms: _354  and  _355
REMARK  151  A    between atoms: _354  and  _357
REMARK  152  A    between atoms: _357  and  _358
REMARK  153  A    between atoms: _363  and  _365
REMARK  154  A    between atoms: _365  and  _366
REMARK  155  A    between atoms: _365  and  _368
REMARK  156  A    between atoms: _368  and  _369
REMARK  157  A    between atoms: _372  and  _374
REMARK  158  A    between atoms: _374  and  _375
REMARK  159  A    between atoms: _374  and  _377
REMARK  160  A    between atoms: _377  and  _378
REMARK  161  A    between atoms: _378  and  _379
REMARK  162  A    between atoms: _384  and  _386
REMARK  163  A    between atoms: _386  and  _387
REMARK  164  A    between atoms: _389  and  _391
REMARK  165  A    between atoms: _391  and  _392
REMARK  166  A    between atoms: _391  and  _394
REMARK  167  A    between atoms: _394  and  _395
REMARK  168  A    between atoms: _401  and  _403
REMARK  169  A    between atoms: _403  and  _404
REMARK  170  A    between atoms: _403  and  _406
REMARK  171  A    between atoms: _406  and  _407
REMARK  172  A    between atoms: _417  and  _419
REMARK  173  A    between atoms: _419  and  _420
REMARK  174  A    between atoms: _419  and  _422
REMARK  175  A    between atoms: _422  and  _423
REMARK  176  A    between atoms: _426  and  _428
REMARK  177  A    between atoms: _428  and  _429
REMARK  178  A    between atoms: _432  and  _434
REMARK  179  A    between atoms: _434  and  _435
REMARK  180  A    between atoms: _434  and  _437
REMARK  181  A    between atoms: _437  and  _438
REMARK  182  A    between atoms: _441  and  _443
REMARK  183  A    between atoms: _443  and  _444
REMARK  184  A    between atoms: _443  and  _446
REMARK  185  A    between atoms: _446  and  _447
REMARK  186  A    between atoms: _450  and  _452
REMARK  187  A    between atoms: _452  and  _453
REMARK  188  A    between atoms: _455  and  _457
REMARK  189  A    between atoms: _457  and  _458
REMARK  190  A    between atoms: _457  and  _460
REMARK  191  A    between atoms: _460  and  _461
REMARK  192  A    between atoms: _464  and  _466
REMARK  193  A    between atoms: _466  and  _467
REMARK  194  A    between atoms: _466  and  _469
REMARK  195  A    between atoms: _469  and  _470
REMARK  196  A    between atoms: _473  and  _475
REMARK  197  A    between atoms: _475  and  _476
REMARK  198  A    between atoms: _475  and  _478
REMARK  199  A    between atoms: _478  and  _479
REMARK  200  A    between atoms: _482  and  _484
REMARK  201  A    between atoms: _484  and  _485
REMARK  202  A    between atoms: _484  and  _487
REMARK  203  A    between atoms: _487  and  _488
REMARK  204  A    between atoms: _491  and  _493
REMARK  205  A    between atoms: _493  and  _494
REMARK  206  A    between atoms: _493  and  _496
REMARK  207  A    between atoms: _496  and  _497
REMARK  208  A    between atoms: _502  and  _503
REMARK  209  A    between atoms: _505  and  _507
REMARK  210  A    between atoms: _507  and  _508
REMARK  211  A    between atoms: _507  and  _510
REMARK  212  A    between atoms: _510  and  _511
REMARK  213  A    between atoms: _517  and  _519
REMARK  214  A    between atoms: _519  and  _520
REMARK  215  A    between atoms: _519  and  _522
REMARK  216  A    between atoms: _522  and  _523
REMARK  217  A    between atoms: _526  and  _528
REMARK  218  A    between atoms: _528  and  _529
REMARK  219  A    between atoms: _531  and  _533
REMARK  220  A    between atoms: _533  and  _534
REMARK  221  A    between atoms: _533  and  _536
REMARK  222  A    between atoms: _536  and  _537
REMARK  223  A    between atoms: _540  and  _542
REMARK  224  A    between atoms: _542  and  _543
REMARK  225  A    between atoms: _542  and  _545
REMARK  226  A    between atoms: _545  and  _546
REMARK  227  A    between atoms: _551  and  _553
REMARK  228  A    between atoms: _553  and  _554
REMARK  229  A    between atoms: _553  and  _556
REMARK  230  A    between atoms: _556  and  _557
REMARK  231  A    between atoms: _560  and  _562
REMARK  232  A    between atoms: _562  and  _563
REMARK  233  A    between atoms: _562  and  _565
REMARK  234  A    between atoms: _565  and  _566
REMARK  235  A    between atoms: _572  and  _574
REMARK  236  A    between atoms: _574  and  _575
REMARK  237  A    between atoms: _577  and  _579
REMARK  238  A    between atoms: _579  and  _580
REMARK  239  A    between atoms: _579  and  _582
REMARK  240  A    between atoms: _582  and  _583
REMARK  241  A    between atoms: _586  and  _588
REMARK  242  A    between atoms: _588  and  _589
REMARK  243  A    between atoms: _588  and  _591
REMARK                            x       y       z     vdW  Elec       q    Type
REMARK                         _______ _______ _______ _____ _____    ______ ____
ROOT
ATOM      1  CA  ASN A   2       8.670   5.324  20.339  0.00  0.00    +0.158 C 
ENDROOT
BRANCH   1   3
ATOM      2  C   LEU A   1       8.552   7.211  18.837  0.00  0.00    +0.238 C 
ATOM      3  N   ASN A   2       9.301   6.323  19.484  0.00  0.00    -0.297 N 
ATOM      4  H   ASN A   2      10.336   6.341  19.380  0.00  0.00    +0.150 HD
ATOM      5  O   LEU A   1       7.334   7.248  18.960  0.00  0.00    -0.274 OA
BRANCH   2   6
ATOM      6  CA  LEU A   1       9.255   8.195  17.902  0.00  0.00    +0.145 C 
BRANCH   6   7
ATOM      7  N   LEU A   1      10.712   8.079  17.896  0.00  0.00    -0.238 NA
ATOM      8  H   LEU A   1      11.167   7.414  17.238  0.00  0.00    +0.142 HD
ENDBRANCH   6   7
BRANCH   6   9
ATOM      9  CB  LEU A   1       8.685   8.038  16.487  0.00  0.00    +0.026 C 
BRANCH   9  10
ATOM     10  CG  LEU A   1       9.088   9.092  15.457  0.00  0.00    +0.002 C 
ATOM     11  CD2 LEU A   1       8.713  10.494  15.923  0.00  0.00    +0.000 C 
ATOM     12  CD1 LEU A   1       8.457   8.779  14.110  0.00  0.00    +0.000 C 
ENDBRANCH   9  10
ENDBRANCH   6   9
ENDBRANCH   2   6
ENDBRANCH   1   3
BRANCH   1  13
ATOM     13  C   ASN A   2       7.936   5.994  21.497  0.00  0.00    +0.241 C 
ATOM     14  O   ASN A   2       8.465   6.926  22.121  0.00  0.00    -0.273 OA
ATOM     15  N   THR A   3       6.722   5.539  21.790  0.00  0.00    -0.296 N 
ATOM     16  H   THR A   3       6.362   4.689  21.310  0.00  0.00    +0.150 HD
BRANCH  15  17
ATOM     17  CA  THR A   3       5.881   6.222  22.784  0.00  0.00    +0.164 C 
BRANCH  17  18
ATOM     18  C   THR A   3       6.001   5.722  24.221  0.00  0.00    +0.229 C 
ATOM     19  O   THR A   3       5.347   6.269  25.109  0.00  0.00    -0.286 OA
ENDBRANCH  17  18
BRANCH  17  20
ATOM     20  CB  THR A   3       4.377   6.205  22.414  0.00  0.00    +0.136 C 
ATOM     21  CG2 THR A   3       4.169   6.574  20.945  0.00  0.00    +0.034 C 
BRANCH  20  22
ATOM     22  OG1 THR A   3       3.814   4.919  22.704  0.00  0.00    -0.382 OA
ATOM     23  HG1 THR A   3       4.287   4.227  22.178  0.00  0.00    +0.210 HD
ENDBRANCH  20  22
ENDBRANCH  17  20
ENDBRANCH  15  17
ENDBRANCH   1  13
BRANCH   1  24
ATOM     24  CB  ASN A   2       9.703   4.330  20.854  0.00  0.00    +0.114 C 
BRANCH  24  25
ATOM     25  CG  ASN A   2       9.108   3.331  21.811  0.00  0.00    +0.222 C 
ATOM     26  OD1 ASN A   2       9.127   3.526  23.030  0.00  0.00    -0.275 OA
ATOM     27  ND2 ASN A   2       8.548   2.262  21.268  0.00  0.00    -0.329 N 
ATOM     28 HD21 ASN A   2       8.100   1.545  21.874  0.00  0.00    +0.145 HD
ATOM     29 HD22 ASN A   2       8.556   2.139  20.235  0.00  0.00    +0.145 HD
ENDBRANCH  24  25
ENDBRANCH   1  24
TORSDOF 12
REMARK  Name = ../refined-set-2016/3pww/3pww_pocket.pdb
REMARK  243 active torsions:
REMARK  status: ('A' for Active; 'I' for Inactive)
REMARK    1  A    between atoms: _1  and  _3
REMARK    2  A    between atoms: _3  and  _4
REMARK    3  A    between atoms: _3  and  _6
REMARK    4  A    between atoms: _6  and  _7
REMARK    5  A    between atoms: _10  and  _12
REMARK    6  A    between atoms: _12  and  _13
REMARK    7  A    between atoms: _12  and  _15
REMARK    8  A    between atoms: _15  and  _16
REMARK    9  A    between atoms: _19  and  _21
REMARK   10  A    between atoms: _21  and  _22
REMARK   11  A    between atoms: _21  and  _24
REMARK   12  A    between atoms: _24  and  _25
REMARK   13  A    between atoms: _28  and  _30
REMARK   14  A    between atoms: _30  and  _31
REMARK   15  A    between atoms: _30  and  _33
REMARK   16  A    between atoms: _33  and  _34
REMARK   17  A    between atoms: _37  and  _39
REMARK   18  A    between atoms: _39  and  _40
REMARK   19  A    between atoms: _39  and  _42
REMARK   20  A    between atoms: _42  and  _43
REMARK   21  A    between atoms: _46  and  _48
REMARK   22  A    between atoms: _48  and  _49
REMARK   23  A    between atoms: _52  and  _54
REMARK   24  A    between atoms: _54  and  _55
REMARK   25  A    between atoms: _54  and  _57
REMARK   26  A    between atoms: _57  and  _58
REMARK   27  A    between atoms: _63  and  _64
REMARK   28  A    between atoms: _66  and  _68
REMARK   29  A    between atoms: _68  and  _69
REMARK   30  A    between atoms: _68  and  _71
REMARK   31  A    between atoms: _71  and  _72
REMARK   32  A    between atoms: _75  and  _77
REMARK   33  A    between atoms: _77  and  _78
REMARK   34  A    between atoms: _77  and  _80
REMARK   35  A    between atoms: _80  and  _81
REMARK   36  A    between atoms: _87  and  _89
REMARK   37  A    between atoms: _89  and  _90
REMARK   38  A    between atoms: _89  and  _92
REMARK   39  A    between atoms: _92  and  _93
REMARK   40  A    between atoms: _96  and  _98
REMARK   41  A    between atoms: _98  and  _99
REMARK   42  A    between atoms: _98  and  _101
REMARK   43  A    between atoms: _101  and  _102
REMARK   44  A    between atoms: _105  and  _107
REMARK   45  A    between atoms: _107  and  _108
REMARK   46  A    between atoms: _110  and  _112
REMARK   47  A    between atoms: _112  and  _113
REMARK   48  A    between atoms: _112  and  _115
REMARK   49  A    between atoms: _115  and  _116
REMARK   50  A    between atoms: _118  and  _120
REMARK   51  A    between atoms: _120  and  _121
REMARK   52  A    between atoms: _120  and  _123
REMARK   53  A    between atoms: _123  and  _124
REMARK   54  A    between atoms: _126  and  _128
REMARK   55  A    between atoms: _128  and  _129
REMARK   56  A    between atoms: _128  and  _131
REMARK   57  A    between atoms: _131  and  _132
REMARK   58  A    between atoms: _135  and  _137
REMARK   59  A    between atoms: _137  and  _138
REMARK   60  A    between atoms: _137  and  _140
REMARK   61  A    between atoms: _140  and  _141
REMARK   62  A    between atoms: _151  and  _153
REMARK   63  A    between atoms: _153  and  _154
REMARK   64  A    between atoms: _153  and  _156
REMARK   65  A    between atoms: _156  and  _157
REMARK   66  A    between atoms: _159  and  _161
REMARK   67  A    between atoms: _161  and  _162
REMARK   68  A    between atoms: _161  and  _164
REMARK   69  A    between atoms: _164  and  _165
REMARK   70  A    between atoms: _168  and  _170
REMARK   71  A    between atoms: _170  and  _171
REMARK   72  A    between atoms: _170  and  _173
REMARK   73  A    between atoms: _173  and  _174
REMARK   74  A    between atoms: _176  and  _178
REMARK   75  A    between atoms: _178  and  _179
REMARK   76  A    between atoms: _178  and  _181
REMARK   77  A    between atoms: _181  and  _182
REMARK   78  A    between atoms: _187  and  _188
REMARK   79  A    between atoms: _190  and  _192
REMARK   80  A    between atoms: _192  and  _193
REMARK   81  A    between atoms: _195  and  _197
REMARK   82  A    between atoms: _197  and  _198
REMARK   83  A    between atoms: _197  and  _200
REMARK   84  A    between atoms: _200  and  _201
REMARK   85  A    between atoms: _204  and  _206
REMARK   86  A    between atoms: _206  and  _207
REMARK   87  A    between atoms: _209  and  _211
REMARK   88  A    between atoms: _211  and  _212
REMARK   89  A    between atoms: _211  and  _214
REMARK   90  A    between atoms: _214  and  _215
REMARK   91  A    between atoms: _217  and  _219
REMARK   92  A    between atoms: _219  and  _220
REMARK   93  A    between atoms: _219  and  _222
REMARK   94  A    between atoms: _222  and  _223
REMARK   95  A    between atoms: _225  and  _227
REMARK   96  A    between atoms: _227  and  _228
REMARK   97  A    between atoms: _227  and  _230
REMARK   98  A    between atoms: _230  and  _231
REMARK   99  A    between atoms: _233  and  _235
REMARK  100  A    between atoms: _235  and  _236
REMARK  101  A    between atoms: _235  and  _238
REMARK  102  A    between atoms: _238  and  _239
REMARK  103  A    between atoms: _241  and  _243
REMARK  104  A    between atoms: _243  and  _244
REMARK  105  A    between atoms: _243  and  _246
REMARK  106  A    between atoms: _246  and  _247
REMARK  107  A    between atoms: _249  and  _251
REMARK  108  A    between atoms: _251  and  _252
REMARK  109  A    between atoms: _251  and  _254
REMARK  110  A    between atoms: _254  and  _255
REMARK  111  A    between atoms: _261  and  _263
REMARK  112  A    between atoms: _263  and  _264
REMARK  113  A    between atoms: _263  and  _266
REMARK  114  A    between atoms: _266  and  _267
REMARK  115  A    between atoms: _270  and  _272
REMARK  116  A    between atoms: _272  and  _273
REMARK  117  A    between atoms: _272  and  _275
REMARK  118  A    between atoms: _275  and  _276
REMARK  119  A    between atoms: _279  and  _281
REMARK  120  A    between atoms: _281  and  _282
REMARK  121  A    between atoms: _281  and  _284
REMARK  122  A    between atoms: _284  and  _285
REMARK  123  A    between atoms: _288  and  _290
REMARK  124  A    between atoms: _290  and  _291
REMARK  125  A    between atoms: _293  and  _295
REMARK  126  A    between atoms: _295  and  _296
REMARK  127  A    between atoms: _295  and  _298
REMARK  128  A    between atoms: _298  and  _299
REMARK  129  A    between atoms: _302  and  _304
REMARK  130  A    between atoms: _304  and  _305
REMARK  131  A    between atoms: _304  and  _307
REMARK  132  A    between atoms: _307  and  _308
REMARK  133  A    between atoms: _311  and  _313
REMARK  134  A    between atoms: _313  and  _314
REMARK  135  A    between atoms: _316  and  _318
REMARK  136  A    between atoms: _318  and  _319
REMARK  137  A    between atoms: _318  and  _321
REMARK  138  A    between atoms: _321  and  _322
REMARK  139  A    between atoms: _325  and  _327
REMARK  140  A    between atoms: _327  and  _328
REMARK  141  A    between atoms: _331  and  _333
REMARK  142  A    between atoms: _333  and  _334
REMARK  143  A    between atoms: _333  and  _336
REMARK  144  A    between atoms: _336  and  _337
REMARK  145  A    between atoms: _343  and  _345
REMARK  146  A    between atoms: _345  and  _346
REMARK  147  A    between atoms: _345  and  _348
REMARK  148  A    between atoms: _348  and  _349
REMARK  149  A    between atoms: _352  and  _354
REMARK  150  A    between atoms: _354  and  _355
REMARK  151  A    between atoms: _354  and  _357
REMARK  152  A    between atoms: _357  and  _358
REMARK  153  A    between atoms: _363  and  _365
REMARK  154  A    between atoms: _365  and  _366
REMARK  155  A    between atoms: _365  and  _368
REMARK  156  A    between atoms: _368  and  _369
REMARK  157  A    between atoms: _372  and  _374
REMARK  158  A    between atoms: _374  and  _375
REMARK  159  A    between atoms: _374  and  _377
REMARK  160  A    between atoms: _377  and  _378
REMARK  161  A    between atoms: _378  and  _379
REMARK  162  A    between atoms: _384  and  _386
REMARK  163  A    between atoms: _386  and  _387
REMARK  164  A    between atoms: _389  and  _391
REMARK  165  A    between atoms: _391  and  _392
REMARK  166  A    between atoms: _391  and  _394
REMARK  167  A    between atoms: _394  and  _395
REMARK  168  A    between atoms: _401  and  _403
REMARK  169  A    between atoms: _403  and  _404
REMARK  170  A    between atoms: _403  and  _406
REMARK  171  A    between atoms: _406  and  _407
REMARK  172  A    between atoms: _417  and  _419
REMARK  173  A    between atoms: _419  and  _420
REMARK  174  A    between atoms: _419  and  _422
REMARK  175  A    between atoms: _422  and  _423
REMARK  176  A    between atoms: _426  and  _428
REMARK  177  A    between atoms: _428  and  _429
REMARK  178  A    between atoms: _432  and  _434
REMARK  179  A    between atoms: _434  and  _435
REMARK  180  A    between atoms: _434  and  _437
REMARK  181  A    between atoms: _437  and  _438
REMARK  182  A    between atoms: _441  and  _443
REMARK  183  A    between atoms: _443  and  _444
REMARK  184  A    between atoms: _443  and  _446
REMARK  185  A    between atoms: _446  and  _447
REMARK  186  A    between atoms: _450  and  _452
REMARK  187  A    between atoms: _452  and  _453
REMARK  188  A    between atoms: _455  and  _457
REMARK  189  A    between atoms: _457  and  _458
REMARK  190  A    between atoms: _457  and  _460
REMARK  191  A    between atoms: _460  and  _461
REMARK  192  A    between atoms: _464  and  _466
REMARK  193  A    between atoms: _466  and  _467
REMARK  194  A    between atoms: _466  and  _469
REMARK  195  A    between atoms: _469  and  _470
REMARK  196  A    between atoms: _473  and  _475
REMARK  197  A    between atoms: _475  and  _476
REMARK  198  A    between atoms: _475  and  _478
REMARK  199  A    between atoms: _478  and  _479
REMARK  200  A    between atoms: _482  and  _484
REMARK  201  A    between atoms: _484  and  _485
REMARK  202  A    between atoms: _484  and  _487
REMARK  203  A    between atoms: _487  and  _488
REMARK  204  A    between atoms: _491  and  _493
REMARK  205  A    between atoms: _493  and  _494
REMARK  206  A    between atoms: _493  and  _496
REMARK  207  A    between atoms: _496  and  _497
REMARK  208  A    between atoms: _502  and  _503
REMARK  209  A    between atoms: _505  and  _507
REMARK  210  A    between atoms: _507  and  _508
REMARK  211  A    between atoms: _507  and  _510
REMARK  212  A    between atoms: _510  and  _511
REMARK  213  A    between atoms: _517  and  _519
REMARK  214  A    between atoms: _519  and  _520
REMARK  215  A    between atoms: _519  and  _522
REMARK  216  A    between atoms: _522  and  _523
REMARK  217  A    between atoms: _526  and  _528
REMARK  218  A    between atoms: _528  and  _529
REMARK  219  A    between atoms: _531  and  _533
REMARK  220  A    between atoms: _533  and  _534
REMARK  221  A    between atoms: _533  and  _536
REMARK  222  A    between atoms: _536  and  _537
REMARK  223  A    between atoms: _540  and  _542
REMARK  224  A    between atoms: _542  and  _543
REMARK  225  A    between atoms: _542  and  _545
REMARK  226  A    between atoms: _545  and  _546
REMARK  227  A    between atoms: _551  and  _553
REMARK  228  A    between atoms: _553  and  _554
REMARK  229  A    between atoms: _553  and  _556
REMARK  230  A    between atoms: _556  and  _557
REMARK  231  A    between atoms: _560  and  _562
REMARK  232  A    between atoms: _562  and  _563
REMARK  233  A    between atoms: _562  and  _565
REMARK  234  A    between atoms: _565  and  _566
REMARK  235  A    between atoms: _572  and  _574
REMARK  236  A    between atoms: _574  and  _575
REMARK  237  A    between atoms: _577  and  _579
REMARK  238  A    between atoms: _579  and  _580
REMARK  239  A    between atoms: _579  and  _582
REMARK  240  A    between atoms: _582  and  _583
REMARK  241  A    between atoms: _586  and  _588
REMARK  242  A    between atoms: _588  and  _589
REMARK  243  A    between atoms: _588  and  _591
REMARK                            x       y       z     vdW  Elec       q    Type
REMARK                         _______ _______ _______ _____ _____    ______ ____
ROOT
ATOM      1  CA  PHE A   3      10.645   9.125   9.645  0.00  0.00    +0.153 C 
ENDROOT
BRANCH   1   4
ATOM      2  C   GLY A   2      11.372   9.403  11.978  0.00  0.00    +0.243 C 
ATOM      3  O   GLY A   2      11.215   8.208  12.241  0.00  0.00    -0.273 OA
ATOM      4  N   PHE A   3      11.149   9.920  10.767  0.00  0.00    -0.297 N 
ATOM      5  H   PHE A   3      11.342  10.931  10.614  0.00  0.00    +0.150 HD
BRANCH   2   6
ATOM      6  CA  GLY A   2      11.842  10.360  13.064  0.00  0.00    +0.176 C 
BRANCH   6   9
ATOM      7  C   GLN A   1      10.845  12.558  12.689  0.00  0.00    +0.238 C 
ATOM      8  O   GLN A   1       9.730  12.183  13.056  0.00  0.00    -0.274 OA
ATOM      9  N   GLY A   2      11.903  11.755  12.647  0.00  0.00    -0.296 N 
ATOM     10  H   GLY A   2      12.808  12.136  12.304  0.00  0.00    +0.150 HD
BRANCH   7  11
ATOM     11  CA  GLN A   1      11.068  14.006  12.251  0.00  0.00    +0.145 C 
BRANCH  11  12
ATOM     12  N   GLN A   1      12.419  14.223  11.754  0.00  0.00    -0.238 NA
ATOM     13  H   GLN A   1      12.661  13.933  10.785  0.00  0.00    +0.142 HD
ENDBRANCH  11  12
BRANCH  11  14
ATOM     14  CB  GLN A   1      10.035  14.395  11.197  0.00  0.00    +0.036 C 
BRANCH  14  15
ATOM     15  CG  GLN A   1      10.094  15.852  10.768  0.00  0.00    +0.087 C 
BRANCH  15  16
ATOM     16  CD  GLN A   1       8.927  16.225   9.878  0.00  0.00    +0.219 C 
ATOM     17  OE1 GLN A   1       7.847  16.560  10.365  0.00  0.00    -0.275 OA
ATOM     18  NE2 GLN A   1       9.131  16.159   8.568  0.00  0.00    -0.329 N 
ATOM     19 HE21 GLN A   1      10.060  15.871   8.200  0.00  0.00    +0.145 HD
ATOM     20 HE22 GLN A   1       8.362  16.395   7.909  0.00  0.00    +0.145 HD
ENDBRANCH  15  16
ENDBRANCH  14  15
ENDBRANCH  11  14
ENDBRANCH   7  11
ENDBRANCH   6   9
ENDBRANCH   2   6
ENDBRANCH   1   4
BRANCH   1  21
ATOM     21  C   PHE A   3      11.750   8.821   8.643  0.00  0.00    +0.241 C 
ATOM     22  O   PHE A   3      12.812   9.454   8.653  0.00  0.00    -0.273 OA
ATOM     23  N   TRP A   4      11.470   7.877   7.746  0.00  0.00    -0.298 N 
ATOM     24  H   TRP A   4      10.640   7.268   7.896  0.00  0.00    +0.150 HD
BRANCH  23  25
ATOM     25  CA  TRP A   4      12.292   7.672   6.561  0.00  0.00    +0.141 C 
BRANCH  25  26
ATOM     26  C   TRP A   4      11.876   8.710   5.520  0.00  0.00    +0.227 C 
ATOM     27  O   TRP A   4      11.108   8.429   4.584  0.00  0.00    -0.286 OA
ENDBRANCH  25  26
BRANCH  25  28
ATOM     28  CB  TRP A   4      12.141   6.240   6.041  0.00  0.00    +0.056 C 
BRANCH  28  29
ATOM     29  CG  TRP A   4      12.696   5.208   6.990  0.00  0.00    -0.002 A 
ATOM     30  CD1 TRP A   4      12.025   4.554   7.983  0.00  0.00    +0.068 A 
ATOM     31  NE1 TRP A   4      12.874   3.696   8.648  0.00  0.00    -0.352 N 
ATOM     32  HE1 TRP A   4      12.614   3.085   9.448  0.00  0.00    +0.166 HD
ATOM     33  CE2 TRP A   4      14.118   3.782   8.080  0.00  0.00    +0.056 A 
ATOM     34  CZ2 TRP A   4      15.301   3.106   8.396  0.00  0.00    +0.017 A 
ATOM     35  CH2 TRP A   4      16.406   3.378   7.637  0.00  0.00    +0.001 A 
ATOM     36  CZ3 TRP A   4      16.364   4.314   6.595  0.00  0.00    +0.000 A 
ATOM     37  CE3 TRP A   4      15.197   4.992   6.285  0.00  0.00    +0.001 A 
ATOM     38  CD2 TRP A   4      14.046   4.728   7.036  0.00  0.00    +0.013 A 
ENDBRANCH  28  29
ENDBRANCH  25  28
ENDBRANCH  23  25
ENDBRANCH   1  21
BRANCH   1  39
ATOM     39  CB  PHE A   3       9.553   9.884   8.889  0.00  0.00    +0.055 C 
BRANCH  39  40
ATOM     40  CG  PHE A   3       8.406  10.337   9.747  0.00  0.00    -0.020 A 
ATOM     41  CD2 PHE A   3       7.729   9.439  10.557  0.00  0.00    -0.004 A 
ATOM     42  CE2 PHE A   3       6.667   9.851  11.339  0.00  0.00    -0.000 A 
ATOM     43  CZ  PHE A   3       6.260  11.170  11.312  0.00  0.00    -0.000 A 
ATOM     44  CE1 PHE A   3       6.912  12.078  10.501  0.00  0.00    -0.000 A 
ATOM     45  CD1 PHE A   3       7.980  11.657   9.714  0.00  0.00    -0.004 A 
ENDBRANCH  39  40
ENDBRANCH   1  39
TORSDOF 15
REMARK  Name = ../refined-set-2016/3pww/3pww_pocket.pdb
REMARK  243 active torsions:
REMARK  status: ('A' for Active; 'I' for Inactive)
REMARK    1  A    between atoms: _1  and  _3
REMARK    2  A    between atoms: _3  and  _4
REMARK    3  A    between atoms: _3  and  _6
REMARK    4  A    between atoms: _6  and  _7
REMARK    5  A    between atoms: _10  and  _12
REMARK    6  A    between atoms: _12  and  _13
REMARK    7  A    between atoms: _12  and  _15
REMARK    8  A    between atoms: _15  and  _16
REMARK    9  A    between atoms: _19  and  _21
REMARK   10  A    between atoms: _21  and  _22
REMARK   11  A    between atoms: _21  and  _24
REMARK   12  A    between atoms: _24  and  _25
REMARK   13  A    between atoms: _28  and  _30
REMARK   14  A    between atoms: _30  and  _31
REMARK   15  A    between atoms: _30  and  _33
REMARK   16  A    between atoms: _33  and  _34
REMARK   17  A    between atoms: _37  and  _39
REMARK   18  A    between atoms: _39  and  _40
REMARK   19  A    between atoms: _39  and  _42
REMARK   20  A    between atoms: _42  and  _43
REMARK   21  A    between atoms: _46  and  _48
REMARK   22  A    between atoms: _48  and  _49
REMARK   23  A    between atoms: _52  and  _54
REMARK   24  A    between atoms: _54  and  _55
REMARK   25  A    between atoms: _54  and  _57
REMARK   26  A    between atoms: _57  and  _58
REMARK   27  A    between atoms: _63  and  _64
REMARK   28  A    between atoms: _66  and  _68
REMARK   29  A    between atoms: _68  and  _69
REMARK   30  A    between atoms: _68  and  _71
REMARK   31  A    between atoms: _71  and  _72
REMARK   32  A    between atoms: _75  and  _77
REMARK   33  A    between atoms: _77  and  _78
REMARK   34  A    between atoms: _77  and  _80
REMARK   35  A    between atoms: _80  and  _81
REMARK   36  A    between atoms: _87  and  _89
REMARK   37  A    between atoms: _89  and  _90
REMARK   38  A    between atoms: _89  and  _92
REMARK   39  A    between atoms: _92  and  _93
REMARK   40  A    between atoms: _96  and  _98
REMARK   41  A    between atoms: _98  and  _99
REMARK   42  A    between atoms: _98  and  _101
REMARK   43  A    between atoms: _101  and  _102
REMARK   44  A    between atoms: _105  and  _107
REMARK   45  A    between atoms: _107  and  _108
REMARK   46  A    between atoms: _110  and  _112
REMARK   47  A    between atoms: _112  and  _113
REMARK   48  A    between atoms: _112  and  _115
REMARK   49  A    between atoms: _115  and  _116
REMARK   50  A    between atoms: _118  and  _120
REMARK   51  A    between atoms: _120  and  _121
REMARK   52  A    between atoms: _120  and  _123
REMARK   53  A    between atoms: _123  and  _124
REMARK   54  A    between atoms: _126  and  _128
REMARK   55  A    between atoms: _128  and  _129
REMARK   56  A    between atoms: _128  and  _131
REMARK   57  A    between atoms: _131  and  _132
REMARK   58  A    between atoms: _135  and  _137
REMARK   59  A    between atoms: _137  and  _138
REMARK   60  A    between atoms: _137  and  _140
REMARK   61  A    between atoms: _140  and  _141
REMARK   62  A    between atoms: _151  and  _153
REMARK   63  A    between atoms: _153  and  _154
REMARK   64  A    between atoms: _153  and  _156
REMARK   65  A    between atoms: _156  and  _157
REMARK   66  A    between atoms: _159  and  _161
REMARK   67  A    between atoms: _161  and  _162
REMARK   68  A    between atoms: _161  and  _164
REMARK   69  A    between atoms: _164  and  _165
REMARK   70  A    between atoms: _168  and  _170
REMARK   71  A    between atoms: _170  and  _171
REMARK   72  A    between atoms: _170  and  _173
REMARK   73  A    between atoms: _173  and  _174
REMARK   74  A    between atoms: _176  and  _178
REMARK   75  A    between atoms: _178  and  _179
REMARK   76  A    between atoms: _178  and  _181
REMARK   77  A    between atoms: _181  and  _182
REMARK   78  A    between atoms: _187  and  _188
REMARK   79  A    between atoms: _190  and  _192
REMARK   80  A    between atoms: _192  and  _193
REMARK   81  A    between atoms: _195  and  _197
REMARK   82  A    between atoms: _197  and  _198
REMARK   83  A    between atoms: _197  and  _200
REMARK   84  A    between atoms: _200  and  _201
REMARK   85  A    between atoms: _204  and  _206
REMARK   86  A    between atoms: _206  and  _207
REMARK   87  A    between atoms: _209  and  _211
REMARK   88  A    between atoms: _211  and  _212
REMARK   89  A    between atoms: _211  and  _214
REMARK   90  A    between atoms: _214  and  _215
REMARK   91  A    between atoms: _217  and  _219
REMARK   92  A    between atoms: _219  and  _220
REMARK   93  A    between atoms: _219  and  _222
REMARK   94  A    between atoms: _222  and  _223
REMARK   95  A    between atoms: _225  and  _227
REMARK   96  A    between atoms: _227  and  _228
REMARK   97  A    between atoms: _227  and  _230
REMARK   98  A    between atoms: _230  and  _231
REMARK   99  A    between atoms: _233  and  _235
REMARK  100  A    between atoms: _235  and  _236
REMARK  101  A    between atoms: _235  and  _238
REMARK  102  A    between atoms: _238  and  _239
REMARK  103  A    between atoms: _241  and  _243
REMARK  104  A    between atoms: _243  and  _244
REMARK  105  A    between atoms: _243  and  _246
REMARK  106  A    between atoms: _246  and  _247
REMARK  107  A    between atoms: _249  and  _251
REMARK  108  A    between atoms: _251  and  _252
REMARK  109  A    between atoms: _251  and  _254
REMARK  110  A    between atoms: _254  and  _255
REMARK  111  A    between atoms: _261  and  _263
REMARK  112  A    between atoms: _263  and  _264
REMARK  113  A    between atoms: _263  and  _266
REMARK  114  A    between atoms: _266  and  _267
REMARK  115  A    between atoms: _270  and  _272
REMARK  116  A    between atoms: _272  and  _273
REMARK  117  A    between atoms: _272  and  _275
REMARK  118  A    between atoms: _275  and  _276
REMARK  119  A    between atoms: _279  and  _281
REMARK  120  A    between atoms: _281  and  _282
REMARK  121  A    between atoms: _281  and  _284
REMARK  122  A    between atoms: _284  and  _285
REMARK  123  A    between atoms: _288  and  _290
REMARK  124  A    between atoms: _290  and  _291
REMARK  125  A    between atoms: _293  and  _295
REMARK  126  A    between atoms: _295  and  _296
REMARK  127  A    between atoms: _295  and  _298
REMARK  128  A    between atoms: _298  and  _299
REMARK  129  A    between atoms: _302  and  _304
REMARK  130  A    between atoms: _304  and  _305
REMARK  131  A    between atoms: _304  and  _307
REMARK  132  A    between atoms: _307  and  _308
REMARK  133  A    between atoms: _311  and  _313
REMARK  134  A    between atoms: _313  and  _314
REMARK  135  A    between atoms: _316  and  _318
REMARK  136  A    between atoms: _318  and  _319
REMARK  137  A    between atoms: _318  and  _321
REMARK  138  A    between atoms: _321  and  _322
REMARK  139  A    between atoms: _325  and  _327
REMARK  140  A    between atoms: _327  and  _328
REMARK  141  A    between atoms: _331  and  _333
REMARK  142  A    between atoms: _333  and  _334
REMARK  143  A    between atoms: _333  and  _336
REMARK  144  A    between atoms: _336  and  _337
REMARK  145  A    between atoms: _343  and  _345
REMARK  146  A    between atoms: _345  and  _346
REMARK  147  A    between atoms: _345  and  _348
REMARK  148  A    between atoms: _348  and  _349
REMARK  149  A    between atoms: _352  and  _354
REMARK  150  A    between atoms: _354  and  _355
REMARK  151  A    between atoms: _354  and  _357
REMARK  152  A    between atoms: _357  and  _358
REMARK  153  A    between atoms: _363  and  _365
REMARK  154  A    between atoms: _365  and  _366
REMARK  155  A    between atoms: _365  and  _368
REMARK  156  A    between atoms: _368  and  _369
REMARK  157  A    between atoms: _372  and  _374
REMARK  158  A    between atoms: _374  and  _375
REMARK  159  A    between atoms: _374  and  _377
REMARK  160  A    between atoms: _377  and  _378
REMARK  161  A    between atoms: _378  and  _379
REMARK  162  A    between atoms: _384  and  _386
REMARK  163  A    between atoms: _386  and  _387
REMARK  164  A    between atoms: _389  and  _391
REMARK  165  A    between atoms: _391  and  _392
REMARK  166  A    between atoms: _391  and  _394
REMARK  167  A    between atoms: _394  and  _395
REMARK  168  A    between atoms: _401  and  _403
REMARK  169  A    between atoms: _403  and  _404
REMARK  170  A    between atoms: _403  and  _406
REMARK  171  A    between atoms: _406  and  _407
REMARK  172  A    between atoms: _417  and  _419
REMARK  173  A    between atoms: _419  and  _420
REMARK  174  A    between atoms: _419  and  _422
REMARK  175  A    between atoms: _422  and  _423
REMARK  176  A    between atoms: _426  and  _428
REMARK  177  A    between atoms: _428  and  _429
REMARK  178  A    between atoms: _432  and  _434
REMARK  179  A    between atoms: _434  and  _435
REMARK  180  A    between atoms: _434  and  _437
REMARK  181  A    between atoms: _437  and  _438
REMARK  182  A    between atoms: _441  and  _443
REMARK  183  A    between atoms: _443  and  _444
REMARK  184  A    between atoms: _443  and  _446
REMARK  185  A    between atoms: _446  and  _447
REMARK  186  A    between atoms: _450  and  _452
REMARK  187  A    between atoms: _452  and  _453
REMARK  188  A    between atoms: _455  and  _457
REMARK  189  A    between atoms: _457  and  _458
REMARK  190  A    between atoms: _457  and  _460
REMARK  191  A    between atoms: _460  and  _461
REMARK  192  A    between atoms: _464  and  _466
REMARK  193  A    between atoms: _466  and  _467
REMARK  194  A    between atoms: _466  and  _469
REMARK  195  A    between atoms: _469  and  _470
REMARK  196  A    between atoms: _473  and  _475
REMARK  197  A    between atoms: _475  and  _476
REMARK  198  A    between atoms: _475  and  _478
REMARK  199  A    between atoms: _478  and  _479
REMARK  200  A    between atoms: _482  and  _484
REMARK  201  A    between atoms: _484  and  _485
REMARK  202  A    between atoms: _484  and  _487
REMARK  203  A    between atoms: _487  and  _488
REMARK  204  A    between atoms: _491  and  _493
REMARK  205  A    between atoms: _493  and  _494
REMARK  206  A    between atoms: _493  and  _496
REMARK  207  A    between atoms: _496  and  _497
REMARK  208  A    between atoms: _502  and  _503
REMARK  209  A    between atoms: _505  and  _507
REMARK  210  A    between atoms: _507  and  _508
REMARK  211  A    between atoms: _507  and  _510
REMARK  212  A    between atoms: _510  and  _511
REMARK  213  A    between atoms: _517  and  _519
REMARK  214  A    between atoms: _519  and  _520
REMARK  215  A    between atoms: _519  and  _522
REMARK  216  A    between atoms: _522  and  _523
REMARK  217  A    between atoms: _526  and  _528
REMARK  218  A    between atoms: _528  and  _529
REMARK  219  A    between atoms: _531  and  _533
REMARK  220  A    between atoms: _533  and  _534
REMARK  221  A    between atoms: _533  and  _536
REMARK  222  A    between atoms: _536  and  _537
REMARK  223  A    between atoms: _540  and  _542
REMARK  224  A    between atoms: _542  and  _543
REMARK  225  A    between atoms: _542  and  _545
REMARK  226  A    between atoms: _545  and  _546
REMARK  227  A    between atoms: _551  and  _553
REMARK  228  A    between atoms: _553  and  _554
REMARK  229  A    between atoms: _553  and  _556
REMARK  230  A    between atoms: _556  and  _557
REMARK  231  A    between atoms: _560  and  _562
REMARK  232  A    between atoms: _562  and  _563
REMARK  233  A    between atoms: _562  and  _565
REMARK  234  A    between atoms: _565  and  _566
REMARK  235  A    between atoms: _572  and  _574
REMARK  236  A    between atoms: _574  and  _575
REMARK  237  A    between atoms: _577  and  _579
REMARK  238  A    between atoms: _579  and  _580
REMARK  239  A    between atoms: _579  and  _582
REMARK  240  A    between atoms: _582  and  _583
REMARK  241  A    between atoms: _586  and  _588
REMARK  242  A    between atoms: _588  and  _589
REMARK  243  A    between atoms: _588  and  _591
REMARK                            x       y       z     vdW  Elec       q    Type
REMARK                         _______ _______ _______ _____ _____    ______ ____
ROOT
ATOM      1  CA  THR A   6      -0.098   3.674   4.921  0.00  0.00    +0.176 C 
ENDROOT
BRANCH   1   4
ATOM      2  C   GLY A   5       0.711   2.192   6.686  0.00  0.00    +0.243 C 
ATOM      3  O   GLY A   5      -0.382   2.145   7.244  0.00  0.00    -0.273 OA
ATOM      4  N   THR A   6       0.948   2.923   5.600  0.00  0.00    -0.295 N 
ATOM      5  H   THR A   6       1.916   2.959   5.222  0.00  0.00    +0.150 HD
BRANCH   2   6
ATOM      6  CA  GLY A   5       1.877   1.390   7.231  0.00  0.00    +0.176 C 
BRANCH   6   8
ATOM      7  C   THR A   4       3.339   0.705   5.406  0.00  0.00    +0.243 C 
ATOM      8  N   GLY A   5       3.106   1.485   6.458  0.00  0.00    -0.295 N 
ATOM      9  H   GLY A   5       3.824   2.184   6.736  0.00  0.00    +0.150 HD
ATOM     10  O   THR A   4       2.538  -0.151   5.018  0.00  0.00    -0.273 OA
BRANCH   7  11
ATOM     11  CA  THR A   4       4.666   0.893   4.666  0.00  0.00    +0.176 C 
BRANCH  11  13
ATOM     12  C   ASP A   3       4.756   3.320   4.672  0.00  0.00    +0.241 C 
ATOM     13  N   THR A   4       5.302   2.156   5.018  0.00  0.00    -0.295 N 
ATOM     14  H   THR A   4       6.197   2.148   5.548  0.00  0.00    +0.150 HD
ATOM     15  O   ASP A   3       3.688   3.397   4.051  0.00  0.00    -0.273 OA
BRANCH  12  16
ATOM     16  CA  ASP A   3       5.519   4.579   5.065  0.00  0.00    +0.160 C 
BRANCH  16  19
ATOM     17  C   ALA A   2       7.671   5.294   4.135  0.00  0.00    +0.241 C 
ATOM     18  O   ALA A   2       8.297   5.035   5.175  0.00  0.00    -0.273 OA
ATOM     19  N   ASP A   3       6.376   5.020   3.967  0.00  0.00    -0.297 N 
ATOM     20  H   ASP A   3       5.961   5.124   3.019  0.00  0.00    +0.150 HD
BRANCH  17  21
ATOM     21  CA  ALA A   2       8.374   5.970   2.959  0.00  0.00    +0.149 C 
ATOM     22  CB  ALA A   2       9.670   5.254   2.591  0.00  0.00    +0.031 C 
BRANCH  21  24
ATOM     23  C   ILE A   1       7.740   8.301   3.181  0.00  0.00    +0.238 C 
ATOM     24  N   ALA A   2       8.645   7.345   3.334  0.00  0.00    -0.297 N 
ATOM     25  H   ALA A   2       9.574   7.587   3.734  0.00  0.00    +0.150 HD
ATOM     26  O   ILE A   1       6.670   8.128   2.586  0.00  0.00    -0.274 OA
BRANCH  23  27
ATOM     27  CA  ILE A   1       8.084   9.643   3.786  0.00  0.00    +0.145 C 
BRANCH  27  28
ATOM     28  CB  ILE A   1       7.576   9.709   5.234  0.00  0.00    +0.025 C 
ATOM     29  CG2 ILE A   1       8.052  10.999   5.903  0.00  0.00    +0.002 C 
BRANCH  28  30
ATOM     30  CG1 ILE A   1       6.059   9.551   5.303  0.00  0.00    +0.002 C 
ATOM     31  CD1 ILE A   1       5.538   9.319   6.707  0.00  0.00    +0.000 C 
ENDBRANCH  28  30
ENDBRANCH  27  28
BRANCH  27  32
ATOM     32  N   ILE A   1       7.580  10.740   2.979  0.00  0.00    -0.238 NA
ATOM     33  H   ILE A   1       6.557  10.844   2.825  0.00  0.00    +0.142 HD
ENDBRANCH  27  32
ENDBRANCH  23  27
ENDBRANCH  21  24
ENDBRANCH  17  21
ENDBRANCH  16  19
BRANCH  16  34
ATOM     34  CB  ASP A   3       4.547   5.711   5.443  0.00  0.00    +0.143 C 
BRANCH  34  35
ATOM     35  CG  ASP A   3       3.656   5.371   6.624  0.00  0.00    +0.367 C 
ATOM     36  OD2 ASP A   3       3.772   4.241   7.150  0.00  0.00    -0.246 OA
ATOM     37  OD1 ASP A   3       2.817   6.235   7.008  0.00  0.00    -0.246 OA
ENDBRANCH  34  35
ENDBRANCH  16  34
ENDBRANCH  12  16
ENDBRANCH  11  13
BRANCH  11  38
ATOM     38  CB  THR A   4       5.566  -0.317   4.983  0.00  0.00    +0.137 C 
ATOM     39  CG2 THR A   4       6.855  -0.301   4.158  0.00  0.00    +0.034 C 
BRANCH  38  40
ATOM     40  OG1 THR A   4       5.890  -0.309   6.383  0.00  0.00    -0.382 OA
ATOM     41  HG1 THR A   4       5.056  -0.366   6.914  0.00  0.00    +0.210 HD
ENDBRANCH  38  40
ENDBRANCH  11  38
ENDBRANCH   7  11
ENDBRANCH   6   8
ENDBRANCH   2   6
ENDBRANCH   1   4
BRANCH   1  42
ATOM     42  C   THR A   6      -0.375   3.022   3.568  0.00  0.00    +0.243 C 
ATOM     43  N   THR A   7      -1.645   2.782   3.258  0.00  0.00    -0.295 N 
ATOM     44  H   THR A   7      -2.399   3.109   3.895  0.00  0.00    +0.150 HD
ATOM     45  O   THR A   6       0.550   2.741   2.806  0.00  0.00    -0.273 OA
BRANCH  43  46
ATOM     46  CA  THR A   7      -1.995   2.065   2.035  0.00  0.00    +0.176 C 
BRANCH  46  47
ATOM     47  C   THR A   7      -1.710   2.855   0.759  0.00  0.00    +0.243 C 
ATOM     48  N   LEU A   8      -2.093   4.123   0.755  0.00  0.00    -0.297 N 
ATOM     49  H   LEU A   8      -2.361   4.578   1.651  0.00  0.00    +0.150 HD
ATOM     50  O   THR A   7      -1.164   2.315  -0.215  0.00  0.00    -0.273 OA
BRANCH  48  51
ATOM     51  CA  LEU A   8      -2.146   4.890  -0.480  0.00  0.00    +0.149 C 
BRANCH  51  52
ATOM     52  C   LEU A   8      -0.953   5.823  -0.662  0.00  0.00    +0.241 C 
ATOM     53  O   LEU A   8      -0.083   5.962   0.213  0.00  0.00    -0.273 OA
ATOM     54  N   LEU A   9      -0.918   6.444  -1.833  0.00  0.00    -0.297 N 
ATOM     55  H   LEU A   9      -1.665   6.230  -2.524  0.00  0.00    +0.150 HD
BRANCH  54  56
ATOM     56  CA  LEU A   9       0.107   7.408  -2.207  0.00  0.00    +0.149 C 
BRANCH  56  57
ATOM     57  C   LEU A   9      -0.494   8.809  -2.081  0.00  0.00    +0.241 C 
ATOM     58  N   TYR A  10       0.006   9.603  -1.136  0.00  0.00    -0.298 N 
ATOM     59  H   TYR A  10       0.794   9.248  -0.558  0.00  0.00    +0.150 HD
ATOM     60  O   LEU A   9      -1.433   9.143  -2.816  0.00  0.00    -0.273 OA
BRANCH  58  61
ATOM     61  CA  TYR A  10      -0.499  10.949  -0.871  0.00  0.00    +0.141 C 
BRANCH  61  62
ATOM     62  C   TYR A  10       0.514  11.984  -1.335  0.00  0.00    +0.227 C 
ATOM     63  O   TYR A  10       1.652  12.017  -0.844  0.00  0.00    -0.286 OA
ENDBRANCH  61  62
BRANCH  61  64
ATOM     64  CB  TYR A  10      -0.812  11.143   0.620  0.00  0.00    +0.054 C 
BRANCH  64  65
ATOM     65  CG  TYR A  10      -1.926  10.257   1.114  0.00  0.00    -0.020 A 
ATOM     66  CD2 TYR A  10      -1.669   8.962   1.546  0.00  0.00    -0.001 A 
ATOM     67  CE2 TYR A  10      -2.684   8.136   1.969  0.00  0.00    +0.036 A 
ATOM     68  CZ  TYR A  10      -3.986   8.596   1.955  0.00  0.00    +0.134 A 
ATOM     69  CE1 TYR A  10      -4.273   9.880   1.526  0.00  0.00    +0.036 A 
ATOM     70  CD1 TYR A  10      -3.242  10.695   1.101  0.00  0.00    -0.001 A 
BRANCH  68  71
ATOM     71  OH  TYR A  10      -5.006   7.772   2.371  0.00  0.00    -0.506 OA
ATOM     72  HH  TYR A  10      -5.868   8.253   2.298  0.00  0.00    +0.292 HD
ENDBRANCH  68  71
ENDBRANCH  64  65
ENDBRANCH  61  64
ENDBRANCH  58  61
ENDBRANCH  56  57
BRANCH  56  73
ATOM     73  CB  LEU A   9       0.556   7.136  -3.644  0.00  0.00    +0.029 C 
BRANCH  73  74
ATOM     74  CG  LEU A   9       1.544   8.112  -4.293  0.00  0.00    +0.002 C 
ATOM     75  CD2 LEU A   9       2.766   8.376  -3.414  0.00  0.00    +0.000 C 
ATOM     76  CD1 LEU A   9       1.953   7.579  -5.661  0.00  0.00    +0.000 C 
ENDBRANCH  73  74
ENDBRANCH  56  73
ENDBRANCH  54  56
ENDBRANCH  51  52
BRANCH  51  77
ATOM     77  CB  LEU A   8      -3.474   5.657  -0.572  0.00  0.00    +0.029 C 
BRANCH  77  78
ATOM     78  CG  LEU A   8      -4.734   4.799  -0.384  0.00  0.00    +0.002 C 
ATOM     79  CD2 LEU A   8      -5.993   5.625  -0.615  0.00  0.00    +0.000 C 
ATOM     80  CD1 LEU A   8      -4.725   3.590  -1.313  0.00  0.00    +0.000 C 
ENDBRANCH  77  78
ENDBRANCH  51  77
ENDBRANCH  48  51
ENDBRANCH  46  47
BRANCH  46  81
ATOM     81  CB  THR A   7      -3.495   1.708   2.008  0.00  0.00    +0.137 C 
ATOM     82  CG2 THR A   7      -3.787   0.672   0.927  0.00  0.00    +0.034 C 
BRANCH  81  83
ATOM     83  OG1 THR A   7      -3.908   1.205   3.285  0.00  0.00    -0.382 OA
ATOM     84  HG1 THR A   7      -3.385   0.393   3.503  0.00  0.00    +0.210 HD
ENDBRANCH  81  83
ENDBRANCH  46  81
ENDBRANCH  43  46
ENDBRANCH   1  42
BRANCH   1  85
ATOM     85  CB  THR A   6       0.334   5.149   4.745  0.00  0.00    +0.137 C 
ATOM     86  CG2 THR A   6      -0.610   5.896   3.817  0.00  0.00    +0.034 C 
BRANCH  85  87
ATOM     87  OG1 THR A   6       0.345   5.794   6.028  0.00  0.00    -0.382 OA
ATOM     88  HG1 THR A   6       0.984   5.329   6.624  0.00  0.00    +0.210 HD
ENDBRANCH  85  87
ENDBRANCH   1  85
TORSDOF 37
REMARK  Name = ../refined-set-2016/3pww/3pww_pocket.pdb
REMARK  243 active torsions:
REMARK  status: ('A' for Active; 'I' for Inactive)
REMARK    1  A    between atoms: _1  and  _3
REMARK    2  A    between atoms: _3  and  _4
REMARK    3  A    between atoms: _3  and  _6
REMARK    4  A    between atoms: _6  and  _7
REMARK    5  A    between atoms: _10  and  _12
REMARK    6  A    between atoms: _12  and  _13
REMARK    7  A    between atoms: _12  and  _15
REMARK    8  A    between atoms: _15  and  _16
REMARK    9  A    between atoms: _19  and  _21
REMARK   10  A    between atoms: _21  and  _22
REMARK   11  A    between atoms: _21  and  _24
REMARK   12  A    between atoms: _24  and  _25
REMARK   13  A    between atoms: _28  and  _30
REMARK   14  A    between atoms: _30  and  _31
REMARK   15  A    between atoms: _30  and  _33
REMARK   16  A    between atoms: _33  and  _34
REMARK   17  A    between atoms: _37  and  _39
REMARK   18  A    between atoms: _39  and  _40
REMARK   19  A    between atoms: _39  and  _42
REMARK   20  A    between atoms: _42  and  _43
REMARK   21  A    between atoms: _46  and  _48
REMARK   22  A    between atoms: _48  and  _49
REMARK   23  A    between atoms: _52  and  _54
REMARK   24  A    between atoms: _54  and  _55
REMARK   25  A    between atoms: _54  and  _57
REMARK   26  A    between atoms: _57  and  _58
REMARK   27  A    between atoms: _63  and  _64
REMARK   28  A    between atoms: _66  and  _68
REMARK   29  A    between atoms: _68  and  _69
REMARK   30  A    between atoms: _68  and  _71
REMARK   31  A    between atoms: _71  and  _72
REMARK   32  A    between atoms: _75  and  _77
REMARK   33  A    between atoms: _77  and  _78
REMARK   34  A    between atoms: _77  and  _80
REMARK   35  A    between atoms: _80  and  _81
REMARK   36  A    between atoms: _87  and  _89
REMARK   37  A    between atoms: _89  and  _90
REMARK   38  A    between atoms: _89  and  _92
REMARK   39  A    between atoms: _92  and  _93
REMARK   40  A    between atoms: _96  and  _98
REMARK   41  A    between atoms: _98  and  _99
REMARK   42  A    between atoms: _98  and  _101
REMARK   43  A    between atoms: _101  and  _102
REMARK   44  A    between atoms: _105  and  _107
REMARK   45  A    between atoms: _107  and  _108
REMARK   46  A    between atoms: _110  and  _112
REMARK   47  A    between atoms: _112  and  _113
REMARK   48  A    between atoms: _112  and  _115
REMARK   49  A    between atoms: _115  and  _116
REMARK   50  A    between atoms: _118  and  _120
REMARK   51  A    between atoms: _120  and  _121
REMARK   52  A    between atoms: _120  and  _123
REMARK   53  A    between atoms: _123  and  _124
REMARK   54  A    between atoms: _126  and  _128
REMARK   55  A    between atoms: _128  and  _129
REMARK   56  A    between atoms: _128  and  _131
REMARK   57  A    between atoms: _131  and  _132
REMARK   58  A    between atoms: _135  and  _137
REMARK   59  A    between atoms: _137  and  _138
REMARK   60  A    between atoms: _137  and  _140
REMARK   61  A    between atoms: _140  and  _141
REMARK   62  A    between atoms: _151  and  _153
REMARK   63  A    between atoms: _153  and  _154
REMARK   64  A    between atoms: _153  and  _156
REMARK   65  A    between atoms: _156  and  _157
REMARK   66  A    between atoms: _159  and  _161
REMARK   67  A    between atoms: _161  and  _162
REMARK   68  A    between atoms: _161  and  _164
REMARK   69  A    between atoms: _164  and  _165
REMARK   70  A    between atoms: _168  and  _170
REMARK   71  A    between atoms: _170  and  _171
REMARK   72  A    between atoms: _170  and  _173
REMARK   73  A    between atoms: _173  and  _174
REMARK   74  A    between atoms: _176  and  _178
REMARK   75  A    between atoms: _178  and  _179
REMARK   76  A    between atoms: _178  and  _181
REMARK   77  A    between atoms: _181  and  _182
REMARK   78  A    between atoms: _187  and  _188
REMARK   79  A    between atoms: _190  and  _192
REMARK   80  A    between atoms: _192  and  _193
REMARK   81  A    between atoms: _195  and  _197
REMARK   82  A    between atoms: _197  and  _198
REMARK   83  A    between atoms: _197  and  _200
REMARK   84  A    between atoms: _200  and  _201
REMARK   85  A    between atoms: _204  and  _206
REMARK   86  A    between atoms: _206  and  _207
REMARK   87  A    between atoms: _209  and  _211
REMARK   88  A    between atoms: _211  and  _212
REMARK   89  A    between atoms: _211  and  _214
REMARK   90  A    between atoms: _214  and  _215
REMARK   91  A    between atoms: _217  and  _219
REMARK   92  A    between atoms: _219  and  _220
REMARK   93  A    between atoms: _219  and  _222
REMARK   94  A    between atoms: _222  and  _223
REMARK   95  A    between atoms: _225  and  _227
REMARK   96  A    between atoms: _227  and  _228
REMARK   97  A    between atoms: _227  and  _230
REMARK   98  A    between atoms: _230  and  _231
REMARK   99  A    between atoms: _233  and  _235
REMARK  100  A    between atoms: _235  and  _236
REMARK  101  A    between atoms: _235  and  _238
REMARK  102  A    between atoms: _238  and  _239
REMARK  103  A    between atoms: _241  and  _243
REMARK  104  A    between atoms: _243  and  _244
REMARK  105  A    between atoms: _243  and  _246
REMARK  106  A    between atoms: _246  and  _247
REMARK  107  A    between atoms: _249  and  _251
REMARK  108  A    between atoms: _251  and  _252
REMARK  109  A    between atoms: _251  and  _254
REMARK  110  A    between atoms: _254  and  _255
REMARK  111  A    between atoms: _261  and  _263
REMARK  112  A    between atoms: _263  and  _264
REMARK  113  A    between atoms: _263  and  _266
REMARK  114  A    between atoms: _266  and  _267
REMARK  115  A    between atoms: _270  and  _272
REMARK  116  A    between atoms: _272  and  _273
REMARK  117  A    between atoms: _272  and  _275
REMARK  118  A    between atoms: _275  and  _276
REMARK  119  A    between atoms: _279  and  _281
REMARK  120  A    between atoms: _281  and  _282
REMARK  121  A    between atoms: _281  and  _284
REMARK  122  A    between atoms: _284  and  _285
REMARK  123  A    between atoms: _288  and  _290
REMARK  124  A    between atoms: _290  and  _291
REMARK  125  A    between atoms: _293  and  _295
REMARK  126  A    between atoms: _295  and  _296
REMARK  127  A    between atoms: _295  and  _298
REMARK  128  A    between atoms: _298  and  _299
REMARK  129  A    between atoms: _302  and  _304
REMARK  130  A    between atoms: _304  and  _305
REMARK  131  A    between atoms: _304  and  _307
REMARK  132  A    between atoms: _307  and  _308
REMARK  133  A    between atoms: _311  and  _313
REMARK  134  A    between atoms: _313  and  _314
REMARK  135  A    between atoms: _316  and  _318
REMARK  136  A    between atoms: _318  and  _319
REMARK  137  A    between atoms: _318  and  _321
REMARK  138  A    between atoms: _321  and  _322
REMARK  139  A    between atoms: _325  and  _327
REMARK  140  A    between atoms: _327  and  _328
REMARK  141  A    between atoms: _331  and  _333
REMARK  142  A    between atoms: _333  and  _334
REMARK  143  A    between atoms: _333  and  _336
REMARK  144  A    between atoms: _336  and  _337
REMARK  145  A    between atoms: _343  and  _345
REMARK  146  A    between atoms: _345  and  _346
REMARK  147  A    between atoms: _345  and  _348
REMARK  148  A    between atoms: _348  and  _349
REMARK  149  A    between atoms: _352  and  _354
REMARK  150  A    between atoms: _354  and  _355
REMARK  151  A    between atoms: _354  and  _357
REMARK  152  A    between atoms: _357  and  _358
REMARK  153  A    between atoms: _363  and  _365
REMARK  154  A    between atoms: _365  and  _366
REMARK  155  A    between atoms: _365  and  _368
REMARK  156  A    between atoms: _368  and  _369
REMARK  157  A    between atoms: _372  and  _374
REMARK  158  A    between atoms: _374  and  _375
REMARK  159  A    between atoms: _374  and  _377
REMARK  160  A    between atoms: _377  and  _378
REMARK  161  A    between atoms: _378  and  _379
REMARK  162  A    between atoms: _384  and  _386
REMARK  163  A    between atoms: _386  and  _387
REMARK  164  A    between atoms: _389  and  _391
REMARK  165  A    between atoms: _391  and  _392
REMARK  166  A    between atoms: _391  and  _394
REMARK  167  A    between atoms: _394  and  _395
REMARK  168  A    between atoms: _401  and  _403
REMARK  169  A    between atoms: _403  and  _404
REMARK  170  A    between atoms: _403  and  _406
REMARK  171  A    between atoms: _406  and  _407
REMARK  172  A    between atoms: _417  and  _419
REMARK  173  A    between atoms: _419  and  _420
REMARK  174  A    between atoms: _419  and  _422
REMARK  175  A    between atoms: _422  and  _423
REMARK  176  A    between atoms: _426  and  _428
REMARK  177  A    between atoms: _428  and  _429
REMARK  178  A    between atoms: _432  and  _434
REMARK  179  A    between atoms: _434  and  _435
REMARK  180  A    between atoms: _434  and  _437
REMARK  181  A    between atoms: _437  and  _438
REMARK  182  A    between atoms: _441  and  _443
REMARK  183  A    between atoms: _443  and  _444
REMARK  184  A    between atoms: _443  and  _446
REMARK  185  A    between atoms: _446  and  _447
REMARK  186  A    between atoms: _450  and  _452
REMARK  187  A    between atoms: _452  and  _453
REMARK  188  A    between atoms: _455  and  _457
REMARK  189  A    between atoms: _457  and  _458
REMARK  190  A    between atoms: _457  and  _460
REMARK  191  A    between atoms: _460  and  _461
REMARK  192  A    between atoms: _464  and  _466
REMARK  193  A    between atoms: _466  and  _467
REMARK  194  A    between atoms: _466  and  _469
REMARK  195  A    between atoms: _469  and  _470
REMARK  196  A    between atoms: _473  and  _475
REMARK  197  A    between atoms: _475  and  _476
REMARK  198  A    between atoms: _475  and  _478
REMARK  199  A    between atoms: _478  and  _479
REMARK  200  A    between atoms: _482  and  _484
REMARK  201  A    between atoms: _484  and  _485
REMARK  202  A    between atoms: _484  and  _487
REMARK  203  A    between atoms: _487  and  _488
REMARK  204  A    between atoms: _491  and  _493
REMARK  205  A    between atoms: _493  and  _494
REMARK  206  A    between atoms: _493  and  _496
REMARK  207  A    between atoms: _496  and  _497
REMARK  208  A    between atoms: _502  and  _503
REMARK  209  A    between atoms: _505  and  _507
REMARK  210  A    between atoms: _507  and  _508
REMARK  211  A    between atoms: _507  and  _510
REMARK  212  A    between atoms: _510  and  _511
REMARK  213  A    between atoms: _517  and  _519
REMARK  214  A    between atoms: _519  and  _520
REMARK  215  A    between atoms: _519  and  _522
REMARK  216  A    between atoms: _522  and  _523
REMARK  217  A    between atoms: _526  and  _528
REMARK  218  A    between atoms: _528  and  _529
REMARK  219  A    between atoms: _531  and  _533
REMARK  220  A    between atoms: _533  and  _534
REMARK  221  A    between atoms: _533  and  _536
REMARK  222  A    between atoms: _536  and  _537
REMARK  223  A    between atoms: _540  and  _542
REMARK  224  A    between atoms: _542  and  _543
REMARK  225  A    between atoms: _542  and  _545
REMARK  226  A    between atoms: _545  and  _546
REMARK  227  A    between atoms: _551  and  _553
REMARK  228  A    between atoms: _553  and  _554
REMARK  229  A    between atoms: _553  and  _556
REMARK  230  A    between atoms: _556  and  _557
REMARK  231  A    between atoms: _560  and  _562
REMARK  232  A    between atoms: _562  and  _563
REMARK  233  A    between atoms: _562  and  _565
REMARK  234  A    between atoms: _565  and  _566
REMARK  235  A    between atoms: _572  and  _574
REMARK  236  A    between atoms: _574  and  _575
REMARK  237  A    between atoms: _577  and  _579
REMARK  238  A    between atoms: _579  and  _580
REMARK  239  A    between atoms: _579  and  _582
REMARK  240  A    between atoms: _582  and  _583
REMARK  241  A    between atoms: _586  and  _588
REMARK  242  A    between atoms: _588  and  _589
REMARK  243  A    between atoms: _588  and  _591
REMARK                            x       y       z     vdW  Elec       q    Type
REMARK                         _______ _______ _______ _____ _____    ______ ____
ROOT
ATOM      1  CB  PHE A   1      -8.460   1.300  -3.649  0.00  0.00    +0.051 C 
ENDROOT
BRANCH   1   2
ATOM      2  CG  PHE A   1      -7.032   1.054  -3.363  0.00  0.00    -0.020 A 
ATOM      3  CD2 PHE A   1      -6.648   0.184  -2.361  0.00  0.00    -0.004 A 
ATOM      4  CE2 PHE A   1      -5.312  -0.114  -2.163  0.00  0.00    -0.000 A 
ATOM      5  CZ  PHE A   1      -4.359   0.429  -2.997  0.00  0.00    -0.000 A 
ATOM      6  CE1 PHE A   1      -4.734   1.269  -4.018  0.00  0.00    -0.000 A 
ATOM      7  CD1 PHE A   1      -6.060   1.563  -4.206  0.00  0.00    -0.004 A 
ENDBRANCH   1   2
BRANCH   1   8
ATOM      8  CA  PHE A   1      -8.951   0.419  -4.801  0.00  0.00    +0.137 C 
BRANCH   8   9
ATOM      9  N   PHE A   1      -8.566   0.975  -6.091  0.00  0.00    -0.239 NA
ATOM     10  H   PHE A   1      -8.897   1.925  -6.354  0.00  0.00    +0.142 HD
ENDBRANCH   8   9
BRANCH   8  11
ATOM     11  C   PHE A   1     -10.408  -0.002  -4.702  0.00  0.00    +0.224 C 
ATOM     12  O   PHE A   1     -10.942  -0.211  -3.612  0.00  0.00    -0.287 OA
ENDBRANCH   8  11
ENDBRANCH   1   8
TORSDOF 4
REMARK  Name = ../refined-set-2016/3pww/3pww_pocket.pdb
REMARK  243 active torsions:
REMARK  status: ('A' for Active; 'I' for Inactive)
REMARK    1  A    between atoms: _1  and  _3
REMARK    2  A    between atoms: _3  and  _4
REMARK    3  A    between atoms: _3  and  _6
REMARK    4  A    between atoms: _6  and  _7
REMARK    5  A    between atoms: _10  and  _12
REMARK    6  A    between atoms: _12  and  _13
REMARK    7  A    between atoms: _12  and  _15
REMARK    8  A    between atoms: _15  and  _16
REMARK    9  A    between atoms: _19  and  _21
REMARK   10  A    between atoms: _21  and  _22
REMARK   11  A    between atoms: _21  and  _24
REMARK   12  A    between atoms: _24  and  _25
REMARK   13  A    between atoms: _28  and  _30
REMARK   14  A    between atoms: _30  and  _31
REMARK   15  A    between atoms: _30  and  _33
REMARK   16  A    between atoms: _33  and  _34
REMARK   17  A    between atoms: _37  and  _39
REMARK   18  A    between atoms: _39  and  _40
REMARK   19  A    between atoms: _39  and  _42
REMARK   20  A    between atoms: _42  and  _43
REMARK   21  A    between atoms: _46  and  _48
REMARK   22  A    between atoms: _48  and  _49
REMARK   23  A    between atoms: _52  and  _54
REMARK   24  A    between atoms: _54  and  _55
REMARK   25  A    between atoms: _54  and  _57
REMARK   26  A    between atoms: _57  and  _58
REMARK   27  A    between atoms: _63  and  _64
REMARK   28  A    between atoms: _66  and  _68
REMARK   29  A    between atoms: _68  and  _69
REMARK   30  A    between atoms: _68  and  _71
REMARK   31  A    between atoms: _71  and  _72
REMARK   32  A    between atoms: _75  and  _77
REMARK   33  A    between atoms: _77  and  _78
REMARK   34  A    between atoms: _77  and  _80
REMARK   35  A    between atoms: _80  and  _81
REMARK   36  A    between atoms: _87  and  _89
REMARK   37  A    between atoms: _89  and  _90
REMARK   38  A    between atoms: _89  and  _92
REMARK   39  A    between atoms: _92  and  _93
REMARK   40  A    between atoms: _96  and  _98
REMARK   41  A    between atoms: _98  and  _99
REMARK   42  A    between atoms: _98  and  _101
REMARK   43  A    between atoms: _101  and  _102
REMARK   44  A    between atoms: _105  and  _107
REMARK   45  A    between atoms: _107  and  _108
REMARK   46  A    between atoms: _110  and  _112
REMARK   47  A    between atoms: _112  and  _113
REMARK   48  A    between atoms: _112  and  _115
REMARK   49  A    between atoms: _115  and  _116
REMARK   50  A    between atoms: _118  and  _120
REMARK   51  A    between atoms: _120  and  _121
REMARK   52  A    between atoms: _120  and  _123
REMARK   53  A    between atoms: _123  and  _124
REMARK   54  A    between atoms: _126  and  _128
REMARK   55  A    between atoms: _128  and  _129
REMARK   56  A    between atoms: _128  and  _131
REMARK   57  A    between atoms: _131  and  _132
REMARK   58  A    between atoms: _135  and  _137
REMARK   59  A    between atoms: _137  and  _138
REMARK   60  A    between atoms: _137  and  _140
REMARK   61  A    between atoms: _140  and  _141
REMARK   62  A    between atoms: _151  and  _153
REMARK   63  A    between atoms: _153  and  _154
REMARK   64  A    between atoms: _153  and  _156
REMARK   65  A    between atoms: _156  and  _157
REMARK   66  A    between atoms: _159  and  _161
REMARK   67  A    between atoms: _161  and  _162
REMARK   68  A    between atoms: _161  and  _164
REMARK   69  A    between atoms: _164  and  _165
REMARK   70  A    between atoms: _168  and  _170
REMARK   71  A    between atoms: _170  and  _171
REMARK   72  A    between atoms: _170  and  _173
REMARK   73  A    between atoms: _173  and  _174
REMARK   74  A    between atoms: _176  and  _178
REMARK   75  A    between atoms: _178  and  _179
REMARK   76  A    between atoms: _178  and  _181
REMARK   77  A    between atoms: _181  and  _182
REMARK   78  A    between atoms: _187  and  _188
REMARK   79  A    between atoms: _190  and  _192
REMARK   80  A    between atoms: _192  and  _193
REMARK   81  A    between atoms: _195  and  _197
REMARK   82  A    between atoms: _197  and  _198
REMARK   83  A    between atoms: _197  and  _200
REMARK   84  A    between atoms: _200  and  _201
REMARK   85  A    between atoms: _204  and  _206
REMARK   86  A    between atoms: _206  and  _207
REMARK   87  A    between atoms: _209  and  _211
REMARK   88  A    between atoms: _211  and  _212
REMARK   89  A    between atoms: _211  and  _214
REMARK   90  A    between atoms: _214  and  _215
REMARK   91  A    between atoms: _217  and  _219
REMARK   92  A    between atoms: _219  and  _220
REMARK   93  A    between atoms: _219  and  _222
REMARK   94  A    between atoms: _222  and  _223
REMARK   95  A    between atoms: _225  and  _227
REMARK   96  A    between atoms: _227  and  _228
REMARK   97  A    between atoms: _227  and  _230
REMARK   98  A    between atoms: _230  and  _231
REMARK   99  A    between atoms: _233  and  _235
REMARK  100  A    between atoms: _235  and  _236
REMARK  101  A    between atoms: _235  and  _238
REMARK  102  A    between atoms: _238  and  _239
REMARK  103  A    between atoms: _241  and  _243
REMARK  104  A    between atoms: _243  and  _244
REMARK  105  A    between atoms: _243  and  _246
REMARK  106  A    between atoms: _246  and  _247
REMARK  107  A    between atoms: _249  and  _251
REMARK  108  A    between atoms: _251  and  _252
REMARK  109  A    between atoms: _251  and  _254
REMARK  110  A    between atoms: _254  and  _255
REMARK  111  A    between atoms: _261  and  _263
REMARK  112  A    between atoms: _263  and  _264
REMARK  113  A    between atoms: _263  and  _266
REMARK  114  A    between atoms: _266  and  _267
REMARK  115  A    between atoms: _270  and  _272
REMARK  116  A    between atoms: _272  and  _273
REMARK  117  A    between atoms: _272  and  _275
REMARK  118  A    between atoms: _275  and  _276
REMARK  119  A    between atoms: _279  and  _281
REMARK  120  A    between atoms: _281  and  _282
REMARK  121  A    between atoms: _281  and  _284
REMARK  122  A    between atoms: _284  and  _285
REMARK  123  A    between atoms: _288  and  _290
REMARK  124  A    between atoms: _290  and  _291
REMARK  125  A    between atoms: _293  and  _295
REMARK  126  A    between atoms: _295  and  _296
REMARK  127  A    between atoms: _295  and  _298
REMARK  128  A    between atoms: _298  and  _299
REMARK  129  A    between atoms: _302  and  _304
REMARK  130  A    between atoms: _304  and  _305
REMARK  131  A    between atoms: _304  and  _307
REMARK  132  A    between atoms: _307  and  _308
REMARK  133  A    between atoms: _311  and  _313
REMARK  134  A    between atoms: _313  and  _314
REMARK  135  A    between atoms: _316  and  _318
REMARK  136  A    between atoms: _318  and  _319
REMARK  137  A    between atoms: _318  and  _321
REMARK  138  A    between atoms: _321  and  _322
REMARK  139  A    between atoms: _325  and  _327
REMARK  140  A    between atoms: _327  and  _328
REMARK  141  A    between atoms: _331  and  _333
REMARK  142  A    between atoms: _333  and  _334
REMARK  143  A    between atoms: _333  and  _336
REMARK  144  A    between atoms: _336  and  _337
REMARK  145  A    between atoms: _343  and  _345
REMARK  146  A    between atoms: _345  and  _346
REMARK  147  A    between atoms: _345  and  _348
REMARK  148  A    between atoms: _348  and  _349
REMARK  149  A    between atoms: _352  and  _354
REMARK  150  A    between atoms: _354  and  _355
REMARK  151  A    between atoms: _354  and  _357
REMARK  152  A    between atoms: _357  and  _358
REMARK  153  A    between atoms: _363  and  _365
REMARK  154  A    between atoms: _365  and  _366
REMARK  155  A    between atoms: _365  and  _368
REMARK  156  A    between atoms: _368  and  _369
REMARK  157  A    between atoms: _372  and  _374
REMARK  158  A    between atoms: _374  and  _375
REMARK  159  A    between atoms: _374  and  _377
REMARK  160  A    between atoms: _377  and  _378
REMARK  161  A    between atoms: _378  and  _379
REMARK  162  A    between atoms: _384  and  _386
REMARK  163  A    between atoms: _386  and  _387
REMARK  164  A    between atoms: _389  and  _391
REMARK  165  A    between atoms: _391  and  _392
REMARK  166  A    between atoms: _391  and  _394
REMARK  167  A    between atoms: _394  and  _395
REMARK  168  A    between atoms: _401  and  _403
REMARK  169  A    between atoms: _403  and  _404
REMARK  170  A    between atoms: _403  and  _406
REMARK  171  A    between atoms: _406  and  _407
REMARK  172  A    between atoms: _417  and  _419
REMARK  173  A    between atoms: _419  and  _420
REMARK  174  A    between atoms: _419  and  _422
REMARK  175  A    between atoms: _422  and  _423
REMARK  176  A    between atoms: _426  and  _428
REMARK  177  A    between atoms: _428  and  _429
REMARK  178  A    between atoms: _432  and  _434
REMARK  179  A    between atoms: _434  and  _435
REMARK  180  A    between atoms: _434  and  _437
REMARK  181  A    between atoms: _437  and  _438
REMARK  182  A    between atoms: _441  and  _443
REMARK  183  A    between atoms: _443  and  _444
REMARK  184  A    between atoms: _443  and  _446
REMARK  185  A    between atoms: _446  and  _447
REMARK  186  A    between atoms: _450  and  _452
REMARK  187  A    between atoms: _452  and  _453
REMARK  188  A    between atoms: _455  and  _457
REMARK  189  A    between atoms: _457  and  _458
REMARK  190  A    between atoms: _457  and  _460
REMARK  191  A    between atoms: _460  and  _461
REMARK  192  A    between atoms: _464  and  _466
REMARK  193  A    between atoms: _466  and  _467
REMARK  194  A    between atoms: _466  and  _469
REMARK  195  A    between atoms: _469  and  _470
REMARK  196  A    between atoms: _473  and  _475
REMARK  197  A    between atoms: _475  and  _476
REMARK  198  A    between atoms: _475  and  _478
REMARK  199  A    between atoms: _478  and  _479
REMARK  200  A    between atoms: _482  and  _484
REMARK  201  A    between atoms: _484  and  _485
REMARK  202  A    between atoms: _484  and  _487
REMARK  203  A    between atoms: _487  and  _488
REMARK  204  A    between atoms: _491  and  _493
REMARK  205  A    between atoms: _493  and  _494
REMARK  206  A    between atoms: _493  and  _496
REMARK  207  A    between atoms: _496  and  _497
REMARK  208  A    between atoms: _502  and  _503
REMARK  209  A    between atoms: _505  and  _507
REMARK  210  A    between atoms: _507  and  _508
REMARK  211  A    between atoms: _507  and  _510
REMARK  212  A    between atoms: _510  and  _511
REMARK  213  A    between atoms: _517  and  _519
REMARK  214  A    between atoms: _519  and  _520
REMARK  215  A    between atoms: _519  and  _522
REMARK  216  A    between atoms: _522  and  _523
REMARK  217  A    between atoms: _526  and  _528
REMARK  218  A    between atoms: _528  and  _529
REMARK  219  A    between atoms: _531  and  _533
REMARK  220  A    between atoms: _533  and  _534
REMARK  221  A    between atoms: _533  and  _536
REMARK  222  A    between atoms: _536  and  _537
REMARK  223  A    between atoms: _540  and  _542
REMARK  224  A    between atoms: _542  and  _543
REMARK  225  A    between atoms: _542  and  _545
REMARK  226  A    between atoms: _545  and  _546
REMARK  227  A    between atoms: _551  and  _553
REMARK  228  A    between atoms: _553  and  _554
REMARK  229  A    between atoms: _553  and  _556
REMARK  230  A    between atoms: _556  and  _557
REMARK  231  A    between atoms: _560  and  _562
REMARK  232  A    between atoms: _562  and  _563
REMARK  233  A    between atoms: _562  and  _565
REMARK  234  A    between atoms: _565  and  _566
REMARK  235  A    between atoms: _572  and  _574
REMARK  236  A    between atoms: _574  and  _575
REMARK  237  A    between atoms: _577  and  _579
REMARK  238  A    between atoms: _579  and  _580
REMARK  239  A    between atoms: _579  and  _582
REMARK  240  A    between atoms: _582  and  _583
REMARK  241  A    between atoms: _586  and  _588
REMARK  242  A    between atoms: _588  and  _589
REMARK  243  A    between atoms: _588  and  _591
REMARK                            x       y       z     vdW  Elec       q    Type
REMARK                         _______ _______ _______ _____ _____    ______ ____
ROOT
ATOM      1  CA  ILE A   5       3.350   9.900   1.956  0.00  0.00    +0.149 C 
ENDROOT
BRANCH   1   4
ATOM      2  C   ASN A   4       3.933  12.251   1.933  0.00  0.00    +0.241 C 
ATOM      3  O   ASN A   4       4.886  12.070   2.704  0.00  0.00    -0.273 OA
ATOM      4  N   ILE A   5       3.166  11.265   1.486  0.00  0.00    -0.297 N 
ATOM      5  H   ILE A   5       2.422  11.471   0.789  0.00  0.00    +0.150 HD
BRANCH   2   6
ATOM      6  CA  ASN A   4       3.577  13.645   1.460  0.00  0.00    +0.158 C 
BRANCH   6   9
ATOM      7  C   ILE A   3       3.038  14.814   3.516  0.00  0.00    +0.241 C 
ATOM      8  O   ILE A   3       1.917  14.317   3.566  0.00  0.00    -0.273 OA
ATOM      9  N   ASN A   4       3.877  14.609   2.510  0.00  0.00    -0.297 N 
ATOM     10  H   ASN A   4       4.766  15.147   2.470  0.00  0.00    +0.150 HD
BRANCH   7  11
ATOM     11  CA  ILE A   3       3.526  15.750   4.624  0.00  0.00    +0.149 C 
BRANCH  11  14
ATOM     12  C   GLY A   2       2.550  17.618   5.841  0.00  0.00    +0.243 C 
ATOM     13  O   GLY A   2       3.656  18.101   6.080  0.00  0.00    -0.273 OA
ATOM     14  N   ILE A   3       2.389  16.492   5.148  0.00  0.00    -0.297 N 
ATOM     15  H   ILE A   3       1.427  16.134   4.977  0.00  0.00    +0.150 HD
BRANCH  12  16
ATOM     16  CA  GLY A   2       1.283  18.296   6.326  0.00  0.00    +0.176 C 
BRANCH  16  19
ATOM     17  C   ILE A   1      -0.560  16.765   6.700  0.00  0.00    +0.238 C 
ATOM     18  O   ILE A   1      -0.168  16.488   7.833  0.00  0.00    -0.274 OA
ATOM     19  N   GLY A   2       0.076  17.615   5.900  0.00  0.00    -0.296 N 
ATOM     20  H   GLY A   2      -0.301  17.796   4.948  0.00  0.00    +0.150 HD
BRANCH  17  21
ATOM     21  CA  ILE A   1      -1.816  16.126   6.139  0.00  0.00    +0.145 C 
BRANCH  21  22
ATOM     22  N   ILE A   1      -2.552  17.112   5.345  0.00  0.00    -0.238 NA
ATOM     23  H   ILE A   1      -2.421  17.149   4.314  0.00  0.00    +0.142 HD
ENDBRANCH  21  22
BRANCH  21  24
ATOM     24  CB  ILE A   1      -1.412  14.873   5.331  0.00  0.00    +0.025 C 
ATOM     25  CG2 ILE A   1      -0.516  13.955   6.175  0.00  0.00    +0.002 C 
BRANCH  24  26
ATOM     26  CG1 ILE A   1      -2.652  14.113   4.864  0.00  0.00    +0.002 C 
ATOM     27  CD1 ILE A   1      -2.337  12.888   4.020  0.00  0.00    +0.000 C 
ENDBRANCH  24  26
ENDBRANCH  21  24
ENDBRANCH  17  21
ENDBRANCH  16  19
ENDBRANCH  12  16
ENDBRANCH  11  14
BRANCH  11  28
ATOM     28  CB  ILE A   3       4.243  14.968   5.763  0.00  0.00    +0.027 C 
ATOM     29  CG2 ILE A   3       3.405  13.783   6.219  0.00  0.00    +0.002 C 
BRANCH  28  30
ATOM     30  CG1 ILE A   3       5.660  14.554   5.362  0.00  0.00    +0.002 C 
ATOM     31  CD1 ILE A   3       6.482  14.021   6.534  0.00  0.00    +0.000 C 
ENDBRANCH  28  30
ENDBRANCH  11  28
ENDBRANCH   7  11
ENDBRANCH   6   9
BRANCH   6  32
ATOM     32  CB  ASN A   4       4.341  14.007   0.193  0.00  0.00    +0.114 C 
BRANCH  32  33
ATOM     33  CG  ASN A   4       3.958  15.379  -0.334  0.00  0.00    +0.222 C 
ATOM     34  ND2 ASN A   4       4.943  16.247  -0.499  0.00  0.00    -0.329 N 
ATOM     35 HD21 ASN A   4       5.922  15.969  -0.287  0.00  0.00    +0.145 HD
ATOM     36 HD22 ASN A   4       4.738  17.208  -0.841  0.00  0.00    +0.145 HD
ATOM     37  OD1 ASN A   4       2.783  15.660  -0.571  0.00  0.00    -0.275 OA
ENDBRANCH  32  33
ENDBRANCH   6  32
ENDBRANCH   2   6
ENDBRANCH   1   4
BRANCH   1  38
ATOM     38  C   ILE A   5       3.478   8.927   0.806  0.00  0.00    +0.241 C 
ATOM     39  N   PHE A   6       4.667   8.357   0.670  0.00  0.00    -0.297 N 
ATOM     40  H   PHE A   6       5.465   8.712   1.235  0.00  0.00    +0.150 HD
ATOM     41  O   ILE A   5       2.520   8.699   0.051  0.00  0.00    -0.273 OA
BRANCH  39  42
ATOM     42  CA  PHE A   6       4.887   7.250  -0.246  0.00  0.00    +0.153 C 
BRANCH  42  43
ATOM     43  C   PHE A   6       4.490   5.969   0.468  0.00  0.00    +0.241 C 
ATOM     44  O   PHE A   6       5.314   5.292   1.087  0.00  0.00    -0.273 OA
ATOM     45  N   GLY A   7       3.194   5.674   0.415  0.00  0.00    -0.295 N 
ATOM     46  H   GLY A   7       2.552   6.316  -0.093  0.00  0.00    +0.150 HD
BRANCH  45  47
ATOM     47  CA  GLY A   7       2.648   4.489   1.041  0.00  0.00    +0.176 C 
BRANCH  47  48
ATOM     48  C   GLY A   7       2.751   3.279   0.134  0.00  0.00    +0.243 C 
ATOM     49  N   ASP A   8       1.994   2.237   0.455  0.00  0.00    -0.296 N 
ATOM     50  H   ASP A   8       1.283   2.339   1.207  0.00  0.00    +0.150 HD
ATOM     51  O   GLY A   7       3.497   3.281  -0.850  0.00  0.00    -0.273 OA
BRANCH  49  52
ATOM     52  CA  ASP A   8       2.135   0.949  -0.222  0.00  0.00    +0.160 C 
BRANCH  52  53
ATOM     53  C   ASP A   8       1.956   1.040  -1.736  0.00  0.00    +0.241 C 
ATOM     54  N   VAL A   9       1.036   1.883  -2.199  0.00  0.00    -0.298 N 
ATOM     55  H   VAL A   9       0.465   2.437  -1.530  0.00  0.00    +0.150 HD
ATOM     56  O   ASP A   8       2.623   0.329  -2.477  0.00  0.00    -0.273 OA
BRANCH  54  57
ATOM     57  CA  VAL A   9       0.817   2.041  -3.640  0.00  0.00    +0.137 C 
BRANCH  57  58
ATOM     58  CB  VAL A   9      -0.248   3.127  -3.929  0.00  0.00    +0.026 C 
ATOM     59  CG2 VAL A   9      -1.631   2.606  -3.579  0.00  0.00    +0.002 C 
ATOM     60  CG1 VAL A   9      -0.205   3.574  -5.378  0.00  0.00    +0.002 C 
ENDBRANCH  57  58
BRANCH  57  61
ATOM     61  C   VAL A   9       2.123   2.329  -4.386  0.00  0.00    +0.227 C 
ATOM     62  O   VAL A   9       2.368   1.777  -5.460  0.00  0.00    -0.286 OA
ENDBRANCH  57  61
ENDBRANCH  54  57
ENDBRANCH  52  53
BRANCH  52  63
ATOM     63  CB  ASP A   8       1.158  -0.094   0.342  0.00  0.00    +0.143 C 
BRANCH  63  64
ATOM     64  CG  ASP A   8       1.389  -0.392   1.813  0.00  0.00    +0.367 C 
ATOM     65  OD2 ASP A   8       0.468  -0.916   2.464  0.00  0.00    -0.246 OA
ATOM     66  OD1 ASP A   8       2.498  -0.112   2.322  0.00  0.00    -0.246 OA
ENDBRANCH  63  64
ENDBRANCH  52  63
ENDBRANCH  49  52
ENDBRANCH  47  48
ENDBRANCH  45  47
ENDBRANCH  42  43
BRANCH  42  67
ATOM     67  CB  PHE A   6       6.338   7.226  -0.719  0.00  0.00    +0.055 C 
BRANCH  67  68
ATOM     68  CG  PHE A   6       6.691   8.414  -1.569  0.00  0.00    -0.020 A 
ATOM     69  CD2 PHE A   6       7.145   9.587  -0.991  0.00  0.00    -0.004 A 
ATOM     70  CE2 PHE A   6       7.446  10.693  -1.778  0.00  0.00    -0.000 A 
ATOM     71  CZ  PHE A   6       7.301  10.630  -3.145  0.00  0.00    -0.000 A 
ATOM     72  CE1 PHE A   6       6.854   9.471  -3.733  0.00  0.00    -0.000 A 
ATOM     73  CD1 PHE A   6       6.545   8.368  -2.947  0.00  0.00    -0.004 A 
ENDBRANCH  67  68
ENDBRANCH  42  67
ENDBRANCH  39  42
ENDBRANCH   1  38
BRANCH   1  74
ATOM     74  CB  ILE A   5       2.182   9.432   2.850  0.00  0.00    +0.027 C 
ATOM     75  CG2 ILE A   5       2.496   8.063   3.464  0.00  0.00    +0.002 C 
BRANCH  74  76
ATOM     76  CG1 ILE A   5       1.870  10.454   3.944  0.00  0.00    +0.002 C 
ATOM     77  CD1 ILE A   5       0.529  10.197   4.632  0.00  0.00    +0.000 C 
ENDBRANCH  74  76
ENDBRANCH   1  74
TORSDOF 31
REMARK  Name = ../refined-set-2016/3pww/3pww_pocket.pdb
REMARK  243 active torsions:
REMARK  status: ('A' for Active; 'I' for Inactive)
REMARK    1  A    between atoms: _1  and  _3
REMARK    2  A    between atoms: _3  and  _4
REMARK    3  A    between atoms: _3  and  _6
REMARK    4  A    between atoms: _6  and  _7
REMARK    5  A    between atoms: _10  and  _12
REMARK    6  A    between atoms: _12  and  _13
REMARK    7  A    between atoms: _12  and  _15
REMARK    8  A    between atoms: _15  and  _16
REMARK    9  A    between atoms: _19  and  _21
REMARK   10  A    between atoms: _21  and  _22
REMARK   11  A    between atoms: _21  and  _24
REMARK   12  A    between atoms: _24  and  _25
REMARK   13  A    between atoms: _28  and  _30
REMARK   14  A    between atoms: _30  and  _31
REMARK   15  A    between atoms: _30  and  _33
REMARK   16  A    between atoms: _33  and  _34
REMARK   17  A    between atoms: _37  and  _39
REMARK   18  A    between atoms: _39  and  _40
REMARK   19  A    between atoms: _39  and  _42
REMARK   20  A    between atoms: _42  and  _43
REMARK   21  A    between atoms: _46  and  _48
REMARK   22  A    between atoms: _48  and  _49
REMARK   23  A    between atoms: _52  and  _54
REMARK   24  A    between atoms: _54  and  _55
REMARK   25  A    between atoms: _54  and  _57
REMARK   26  A    between atoms: _57  and  _58
REMARK   27  A    between atoms: _63  and  _64
REMARK   28  A    between atoms: _66  and  _68
REMARK   29  A    between atoms: _68  and  _69
REMARK   30  A    between atoms: _68  and  _71
REMARK   31  A    between atoms: _71  and  _72
REMARK   32  A    between atoms: _75  and  _77
REMARK   33  A    between atoms: _77  and  _78
REMARK   34  A    between atoms: _77  and  _80
REMARK   35  A    between atoms: _80  and  _81
REMARK   36  A    between atoms: _87  and  _89
REMARK   37  A    between atoms: _89  and  _90
REMARK   38  A    between atoms: _89  and  _92
REMARK   39  A    between atoms: _92  and  _93
REMARK   40  A    between atoms: _96  and  _98
REMARK   41  A    between atoms: _98  and  _99
REMARK   42  A    between atoms: _98  and  _101
REMARK   43  A    between atoms: _101  and  _102
REMARK   44  A    between atoms: _105  and  _107
REMARK   45  A    between atoms: _107  and  _108
REMARK   46  A    between atoms: _110  and  _112
REMARK   47  A    between atoms: _112  and  _113
REMARK   48  A    between atoms: _112  and  _115
REMARK   49  A    between atoms: _115  and  _116
REMARK   50  A    between atoms: _118  and  _120
REMARK   51  A    between atoms: _120  and  _121
REMARK   52  A    between atoms: _120  and  _123
REMARK   53  A    between atoms: _123  and  _124
REMARK   54  A    between atoms: _126  and  _128
REMARK   55  A    between atoms: _128  and  _129
REMARK   56  A    between atoms: _128  and  _131
REMARK   57  A    between atoms: _131  and  _132
REMARK   58  A    between atoms: _135  and  _137
REMARK   59  A    between atoms: _137  and  _138
REMARK   60  A    between atoms: _137  and  _140
REMARK   61  A    between atoms: _140  and  _141
REMARK   62  A    between atoms: _151  and  _153
REMARK   63  A    between atoms: _153  and  _154
REMARK   64  A    between atoms: _153  and  _156
REMARK   65  A    between atoms: _156  and  _157
REMARK   66  A    between atoms: _159  and  _161
REMARK   67  A    between atoms: _161  and  _162
REMARK   68  A    between atoms: _161  and  _164
REMARK   69  A    between atoms: _164  and  _165
REMARK   70  A    between atoms: _168  and  _170
REMARK   71  A    between atoms: _170  and  _171
REMARK   72  A    between atoms: _170  and  _173
REMARK   73  A    between atoms: _173  and  _174
REMARK   74  A    between atoms: _176  and  _178
REMARK   75  A    between atoms: _178  and  _179
REMARK   76  A    between atoms: _178  and  _181
REMARK   77  A    between atoms: _181  and  _182
REMARK   78  A    between atoms: _187  and  _188
REMARK   79  A    between atoms: _190  and  _192
REMARK   80  A    between atoms: _192  and  _193
REMARK   81  A    between atoms: _195  and  _197
REMARK   82  A    between atoms: _197  and  _198
REMARK   83  A    between atoms: _197  and  _200
REMARK   84  A    between atoms: _200  and  _201
REMARK   85  A    between atoms: _204  and  _206
REMARK   86  A    between atoms: _206  and  _207
REMARK   87  A    between atoms: _209  and  _211
REMARK   88  A    between atoms: _211  and  _212
REMARK   89  A    between atoms: _211  and  _214
REMARK   90  A    between atoms: _214  and  _215
REMARK   91  A    between atoms: _217  and  _219
REMARK   92  A    between atoms: _219  and  _220
REMARK   93  A    between atoms: _219  and  _222
REMARK   94  A    between atoms: _222  and  _223
REMARK   95  A    between atoms: _225  and  _227
REMARK   96  A    between atoms: _227  and  _228
REMARK   97  A    between atoms: _227  and  _230
REMARK   98  A    between atoms: _230  and  _231
REMARK   99  A    between atoms: _233  and  _235
REMARK  100  A    between atoms: _235  and  _236
REMARK  101  A    between atoms: _235  and  _238
REMARK  102  A    between atoms: _238  and  _239
REMARK  103  A    between atoms: _241  and  _243
REMARK  104  A    between atoms: _243  and  _244
REMARK  105  A    between atoms: _243  and  _246
REMARK  106  A    between atoms: _246  and  _247
REMARK  107  A    between atoms: _249  and  _251
REMARK  108  A    between atoms: _251  and  _252
REMARK  109  A    between atoms: _251  and  _254
REMARK  110  A    between atoms: _254  and  _255
REMARK  111  A    between atoms: _261  and  _263
REMARK  112  A    between atoms: _263  and  _264
REMARK  113  A    between atoms: _263  and  _266
REMARK  114  A    between atoms: _266  and  _267
REMARK  115  A    between atoms: _270  and  _272
REMARK  116  A    between atoms: _272  and  _273
REMARK  117  A    between atoms: _272  and  _275
REMARK  118  A    between atoms: _275  and  _276
REMARK  119  A    between atoms: _279  and  _281
REMARK  120  A    between atoms: _281  and  _282
REMARK  121  A    between atoms: _281  and  _284
REMARK  122  A    between atoms: _284  and  _285
REMARK  123  A    between atoms: _288  and  _290
REMARK  124  A    between atoms: _290  and  _291
REMARK  125  A    between atoms: _293  and  _295
REMARK  126  A    between atoms: _295  and  _296
REMARK  127  A    between atoms: _295  and  _298
REMARK  128  A    between atoms: _298  and  _299
REMARK  129  A    between atoms: _302  and  _304
REMARK  130  A    between atoms: _304  and  _305
REMARK  131  A    between atoms: _304  and  _307
REMARK  132  A    between atoms: _307  and  _308
REMARK  133  A    between atoms: _311  and  _313
REMARK  134  A    between atoms: _313  and  _314
REMARK  135  A    between atoms: _316  and  _318
REMARK  136  A    between atoms: _318  and  _319
REMARK  137  A    between atoms: _318  and  _321
REMARK  138  A    between atoms: _321  and  _322
REMARK  139  A    between atoms: _325  and  _327
REMARK  140  A    between atoms: _327  and  _328
REMARK  141  A    between atoms: _331  and  _333
REMARK  142  A    between atoms: _333  and  _334
REMARK  143  A    between atoms: _333  and  _336
REMARK  144  A    between atoms: _336  and  _337
REMARK  145  A    between atoms: _343  and  _345
REMARK  146  A    between atoms: _345  and  _346
REMARK  147  A    between atoms: _345  and  _348
REMARK  148  A    between atoms: _348  and  _349
REMARK  149  A    between atoms: _352  and  _354
REMARK  150  A    between atoms: _354  and  _355
REMARK  151  A    between atoms: _354  and  _357
REMARK  152  A    between atoms: _357  and  _358
REMARK  153  A    between atoms: _363  and  _365
REMARK  154  A    between atoms: _365  and  _366
REMARK  155  A    between atoms: _365  and  _368
REMARK  156  A    between atoms: _368  and  _369
REMARK  157  A    between atoms: _372  and  _374
REMARK  158  A    between atoms: _374  and  _375
REMARK  159  A    between atoms: _374  and  _377
REMARK  160  A    between atoms: _377  and  _378
REMARK  161  A    between atoms: _378  and  _379
REMARK  162  A    between atoms: _384  and  _386
REMARK  163  A    between atoms: _386  and  _387
REMARK  164  A    between atoms: _389  and  _391
REMARK  165  A    between atoms: _391  and  _392
REMARK  166  A    between atoms: _391  and  _394
REMARK  167  A    between atoms: _394  and  _395
REMARK  168  A    between atoms: _401  and  _403
REMARK  169  A    between atoms: _403  and  _404
REMARK  170  A    between atoms: _403  and  _406
REMARK  171  A    between atoms: _406  and  _407
REMARK  172  A    between atoms: _417  and  _419
REMARK  173  A    between atoms: _419  and  _420
REMARK  174  A    between atoms: _419  and  _422
REMARK  175  A    between atoms: _422  and  _423
REMARK  176  A    between atoms: _426  and  _428
REMARK  177  A    between atoms: _428  and  _429
REMARK  178  A    between atoms: _432  and  _434
REMARK  179  A    between atoms: _434  and  _435
REMARK  180  A    between atoms: _434  and  _437
REMARK  181  A    between atoms: _437  and  _438
REMARK  182  A    between atoms: _441  and  _443
REMARK  183  A    between atoms: _443  and  _444
REMARK  184  A    between atoms: _443  and  _446
REMARK  185  A    between atoms: _446  and  _447
REMARK  186  A    between atoms: _450  and  _452
REMARK  187  A    between atoms: _452  and  _453
REMARK  188  A    between atoms: _455  and  _457
REMARK  189  A    between atoms: _457  and  _458
REMARK  190  A    between atoms: _457  and  _460
REMARK  191  A    between atoms: _460  and  _461
REMARK  192  A    between atoms: _464  and  _466
REMARK  193  A    between atoms: _466  and  _467
REMARK  194  A    between atoms: _466  and  _469
REMARK  195  A    between atoms: _469  and  _470
REMARK  196  A    between atoms: _473  and  _475
REMARK  197  A    between atoms: _475  and  _476
REMARK  198  A    between atoms: _475  and  _478
REMARK  199  A    between atoms: _478  and  _479
REMARK  200  A    between atoms: _482  and  _484
REMARK  201  A    between atoms: _484  and  _485
REMARK  202  A    between atoms: _484  and  _487
REMARK  203  A    between atoms: _487  and  _488
REMARK  204  A    between atoms: _491  and  _493
REMARK  205  A    between atoms: _493  and  _494
REMARK  206  A    between atoms: _493  and  _496
REMARK  207  A    between atoms: _496  and  _497
REMARK  208  A    between atoms: _502  and  _503
REMARK  209  A    between atoms: _505  and  _507
REMARK  210  A    between atoms: _507  and  _508
REMARK  211  A    between atoms: _507  and  _510
REMARK  212  A    between atoms: _510  and  _511
REMARK  213  A    between atoms: _517  and  _519
REMARK  214  A    between atoms: _519  and  _520
REMARK  215  A    between atoms: _519  and  _522
REMARK  216  A    between atoms: _522  and  _523
REMARK  217  A    between atoms: _526  and  _528
REMARK  218  A    between atoms: _528  and  _529
REMARK  219  A    between atoms: _531  and  _533
REMARK  220  A    between atoms: _533  and  _534
REMARK  221  A    between atoms: _533  and  _536
REMARK  222  A    between atoms: _536  and  _537
REMARK  223  A    between atoms: _540  and  _542
REMARK  224  A    between atoms: _542  and  _543
REMARK  225  A    between atoms: _542  and  _545
REMARK  226  A    between atoms: _545  and  _546
REMARK  227  A    between atoms: _551  and  _553
REMARK  228  A    between atoms: _553  and  _554
REMARK  229  A    between atoms: _553  and  _556
REMARK  230  A    between atoms: _556  and  _557
REMARK  231  A    between atoms: _560  and  _562
REMARK  232  A    between atoms: _562  and  _563
REMARK  233  A    between atoms: _562  and  _565
REMARK  234  A    between atoms: _565  and  _566
REMARK  235  A    between atoms: _572  and  _574
REMARK  236  A    between atoms: _574  and  _575
REMARK  237  A    between atoms: _577  and  _579
REMARK  238  A    between atoms: _579  and  _580
REMARK  239  A    between atoms: _579  and  _582
REMARK  240  A    between atoms: _582  and  _583
REMARK  241  A    between atoms: _586  and  _588
REMARK  242  A    between atoms: _588  and  _589
REMARK  243  A    between atoms: _588  and  _591
REMARK                            x       y       z     vdW  Elec       q    Type
REMARK                         _______ _______ _______ _____ _____    ______ ____
ROOT
ATOM      1  O   HOH     1     -13.461  -0.270  10.331  0.00  0.00    +0.000 OA
ENDROOT
TORSDOF 0
REMARK  Name = ../refined-set-2016/3pww/3pww_pocket.pdb
REMARK  243 active torsions:
REMARK  status: ('A' for Active; 'I' for Inactive)
REMARK    1  A    between atoms: _1  and  _3
REMARK    2  A    between atoms: _3  and  _4
REMARK    3  A    between atoms: _3  and  _6
REMARK    4  A    between atoms: _6  and  _7
REMARK    5  A    between atoms: _10  and  _12
REMARK    6  A    between atoms: _12  and  _13
REMARK    7  A    between atoms: _12  and  _15
REMARK    8  A    between atoms: _15  and  _16
REMARK    9  A    between atoms: _19  and  _21
REMARK   10  A    between atoms: _21  and  _22
REMARK   11  A    between atoms: _21  and  _24
REMARK   12  A    between atoms: _24  and  _25
REMARK   13  A    between atoms: _28  and  _30
REMARK   14  A    between atoms: _30  and  _31
REMARK   15  A    between atoms: _30  and  _33
REMARK   16  A    between atoms: _33  and  _34
REMARK   17  A    between atoms: _37  and  _39
REMARK   18  A    between atoms: _39  and  _40
REMARK   19  A    between atoms: _39  and  _42
REMARK   20  A    between atoms: _42  and  _43
REMARK   21  A    between atoms: _46  and  _48
REMARK   22  A    between atoms: _48  and  _49
REMARK   23  A    between atoms: _52  and  _54
REMARK   24  A    between atoms: _54  and  _55
REMARK   25  A    between atoms: _54  and  _57
REMARK   26  A    between atoms: _57  and  _58
REMARK   27  A    between atoms: _63  and  _64
REMARK   28  A    between atoms: _66  and  _68
REMARK   29  A    between atoms: _68  and  _69
REMARK   30  A    between atoms: _68  and  _71
REMARK   31  A    between atoms: _71  and  _72
REMARK   32  A    between atoms: _75  and  _77
REMARK   33  A    between atoms: _77  and  _78
REMARK   34  A    between atoms: _77  and  _80
REMARK   35  A    between atoms: _80  and  _81
REMARK   36  A    between atoms: _87  and  _89
REMARK   37  A    between atoms: _89  and  _90
REMARK   38  A    between atoms: _89  and  _92
REMARK   39  A    between atoms: _92  and  _93
REMARK   40  A    between atoms: _96  and  _98
REMARK   41  A    between atoms: _98  and  _99
REMARK   42  A    between atoms: _98  and  _101
REMARK   43  A    between atoms: _101  and  _102
REMARK   44  A    between atoms: _105  and  _107
REMARK   45  A    between atoms: _107  and  _108
REMARK   46  A    between atoms: _110  and  _112
REMARK   47  A    between atoms: _112  and  _113
REMARK   48  A    between atoms: _112  and  _115
REMARK   49  A    between atoms: _115  and  _116
REMARK   50  A    between atoms: _118  and  _120
REMARK   51  A    between atoms: _120  and  _121
REMARK   52  A    between atoms: _120  and  _123
REMARK   53  A    between atoms: _123  and  _124
REMARK   54  A    between atoms: _126  and  _128
REMARK   55  A    between atoms: _128  and  _129
REMARK   56  A    between atoms: _128  and  _131
REMARK   57  A    between atoms: _131  and  _132
REMARK   58  A    between atoms: _135  and  _137
REMARK   59  A    between atoms: _137  and  _138
REMARK   60  A    between atoms: _137  and  _140
REMARK   61  A    between atoms: _140  and  _141
REMARK   62  A    between atoms: _151  and  _153
REMARK   63  A    between atoms: _153  and  _154
REMARK   64  A    between atoms: _153  and  _156
REMARK   65  A    between atoms: _156  and  _157
REMARK   66  A    between atoms: _159  and  _161
REMARK   67  A    between atoms: _161  and  _162
REMARK   68  A    between atoms: _161  and  _164
REMARK   69  A    between atoms: _164  and  _165
REMARK   70  A    between atoms: _168  and  _170
REMARK   71  A    between atoms: _170  and  _171
REMARK   72  A    between atoms: _170  and  _173
REMARK   73  A    between atoms: _173  and  _174
REMARK   74  A    between atoms: _176  and  _178
REMARK   75  A    between atoms: _178  and  _179
REMARK   76  A    between atoms: _178  and  _181
REMARK   77  A    between atoms: _181  and  _182
REMARK   78  A    between atoms: _187  and  _188
REMARK   79  A    between atoms: _190  and  _192
REMARK   80  A    between atoms: _192  and  _193
REMARK   81  A    between atoms: _195  and  _197
REMARK   82  A    between atoms: _197  and  _198
REMARK   83  A    between atoms: _197  and  _200
REMARK   84  A    between atoms: _200  and  _201
REMARK   85  A    between atoms: _204  and  _206
REMARK   86  A    between atoms: _206  and  _207
REMARK   87  A    between atoms: _209  and  _211
REMARK   88  A    between atoms: _211  and  _212
REMARK   89  A    between atoms: _211  and  _214
REMARK   90  A    between atoms: _214  and  _215
REMARK   91  A    between atoms: _217  and  _219
REMARK   92  A    between atoms: _219  and  _220
REMARK   93  A    between atoms: _219  and  _222
REMARK   94  A    between atoms: _222  and  _223
REMARK   95  A    between atoms: _225  and  _227
REMARK   96  A    between atoms: _227  and  _228
REMARK   97  A    between atoms: _227  and  _230
REMARK   98  A    between atoms: _230  and  _231
REMARK   99  A    between atoms: _233  and  _235
REMARK  100  A    between atoms: _235  and  _236
REMARK  101  A    between atoms: _235  and  _238
REMARK  102  A    between atoms: _238  and  _239
REMARK  103  A    between atoms: _241  and  _243
REMARK  104  A    between atoms: _243  and  _244
REMARK  105  A    between atoms: _243  and  _246
REMARK  106  A    between atoms: _246  and  _247
REMARK  107  A    between atoms: _249  and  _251
REMARK  108  A    between atoms: _251  and  _252
REMARK  109  A    between atoms: _251  and  _254
REMARK  110  A    between atoms: _254  and  _255
REMARK  111  A    between atoms: _261  and  _263
REMARK  112  A    between atoms: _263  and  _264
REMARK  113  A    between atoms: _263  and  _266
REMARK  114  A    between atoms: _266  and  _267
REMARK  115  A    between atoms: _270  and  _272
REMARK  116  A    between atoms: _272  and  _273
REMARK  117  A    between atoms: _272  and  _275
REMARK  118  A    between atoms: _275  and  _276
REMARK  119  A    between atoms: _279  and  _281
REMARK  120  A    between atoms: _281  and  _282
REMARK  121  A    between atoms: _281  and  _284
REMARK  122  A    between atoms: _284  and  _285
REMARK  123  A    between atoms: _288  and  _290
REMARK  124  A    between atoms: _290  and  _291
REMARK  125  A    between atoms: _293  and  _295
REMARK  126  A    between atoms: _295  and  _296
REMARK  127  A    between atoms: _295  and  _298
REMARK  128  A    between atoms: _298  and  _299
REMARK  129  A    between atoms: _302  and  _304
REMARK  130  A    between atoms: _304  and  _305
REMARK  131  A    between atoms: _304  and  _307
REMARK  132  A    between atoms: _307  and  _308
REMARK  133  A    between atoms: _311  and  _313
REMARK  134  A    between atoms: _313  and  _314
REMARK  135  A    between atoms: _316  and  _318
REMARK  136  A    between atoms: _318  and  _319
REMARK  137  A    between atoms: _318  and  _321
REMARK  138  A    between atoms: _321  and  _322
REMARK  139  A    between atoms: _325  and  _327
REMARK  140  A    between atoms: _327  and  _328
REMARK  141  A    between atoms: _331  and  _333
REMARK  142  A    between atoms: _333  and  _334
REMARK  143  A    between atoms: _333  and  _336
REMARK  144  A    between atoms: _336  and  _337
REMARK  145  A    between atoms: _343  and  _345
REMARK  146  A    between atoms: _345  and  _346
REMARK  147  A    between atoms: _345  and  _348
REMARK  148  A    between atoms: _348  and  _349
REMARK  149  A    between atoms: _352  and  _354
REMARK  150  A    between atoms: _354  and  _355
REMARK  151  A    between atoms: _354  and  _357
REMARK  152  A    between atoms: _357  and  _358
REMARK  153  A    between atoms: _363  and  _365
REMARK  154  A    between atoms: _365  and  _366
REMARK  155  A    between atoms: _365  and  _368
REMARK  156  A    between atoms: _368  and  _369
REMARK  157  A    between atoms: _372  and  _374
REMARK  158  A    between atoms: _374  and  _375
REMARK  159  A    between atoms: _374  and  _377
REMARK  160  A    between atoms: _377  and  _378
REMARK  161  A    between atoms: _378  and  _379
REMARK  162  A    between atoms: _384  and  _386
REMARK  163  A    between atoms: _386  and  _387
REMARK  164  A    between atoms: _389  and  _391
REMARK  165  A    between atoms: _391  and  _392
REMARK  166  A    between atoms: _391  and  _394
REMARK  167  A    between atoms: _394  and  _395
REMARK  168  A    between atoms: _401  and  _403
REMARK  169  A    between atoms: _403  and  _404
REMARK  170  A    between atoms: _403  and  _406
REMARK  171  A    between atoms: _406  and  _407
REMARK  172  A    between atoms: _417  and  _419
REMARK  173  A    between atoms: _419  and  _420
REMARK  174  A    between atoms: _419  and  _422
REMARK  175  A    between atoms: _422  and  _423
REMARK  176  A    between atoms: _426  and  _428
REMARK  177  A    between atoms: _428  and  _429
REMARK  178  A    between atoms: _432  and  _434
REMARK  179  A    between atoms: _434  and  _435
REMARK  180  A    between atoms: _434  and  _437
REMARK  181  A    between atoms: _437  and  _438
REMARK  182  A    between atoms: _441  and  _443
REMARK  183  A    between atoms: _443  and  _444
REMARK  184  A    between atoms: _443  and  _446
REMARK  185  A    between atoms: _446  and  _447
REMARK  186  A    between atoms: _450  and  _452
REMARK  187  A    between atoms: _452  and  _453
REMARK  188  A    between atoms: _455  and  _457
REMARK  189  A    between atoms: _457  and  _458
REMARK  190  A    between atoms: _457  and  _460
REMARK  191  A    between atoms: _460  and  _461
REMARK  192  A    between atoms: _464  and  _466
REMARK  193  A    between atoms: _466  and  _467
REMARK  194  A    between atoms: _466  and  _469
REMARK  195  A    between atoms: _469  and  _470
REMARK  196  A    between atoms: _473  and  _475
REMARK  197  A    between atoms: _475  and  _476
REMARK  198  A    between atoms: _475  and  _478
REMARK  199  A    between atoms: _478  and  _479
REMARK  200  A    between atoms: _482  and  _484
REMARK  201  A    between atoms: _484  and  _485
REMARK  202  A    between atoms: _484  and  _487
REMARK  203  A    between atoms: _487  and  _488
REMARK  204  A    between atoms: _491  and  _493
REMARK  205  A    between atoms: _493  and  _494
REMARK  206  A    between atoms: _493  and  _496
REMARK  207  A    between atoms: _496  and  _497
REMARK  208  A    between atoms: _502  and  _503
REMARK  209  A    between atoms: _505  and  _507
REMARK  210  A    between atoms: _507  and  _508
REMARK  211  A    between atoms: _507  and  _510
REMARK  212  A    between atoms: _510  and  _511
REMARK  213  A    between atoms: _517  and  _519
REMARK  214  A    between atoms: _519  and  _520
REMARK  215  A    between atoms: _519  and  _522
REMARK  216  A    between atoms: _522  and  _523
REMARK  217  A    between atoms: _526  and  _528
REMARK  218  A    between atoms: _528  and  _529
REMARK  219  A    between atoms: _531  and  _533
REMARK  220  A    between atoms: _533  and  _534
REMARK  221  A    between atoms: _533  and  _536
REMARK  222  A    between atoms: _536  and  _537
REMARK  223  A    between atoms: _540  and  _542
REMARK  224  A    between atoms: _542  and  _543
REMARK  225  A    between atoms: _542  and  _545
REMARK  226  A    between atoms: _545  and  _546
REMARK  227  A    between atoms: _551  and  _553
REMARK  228  A    between atoms: _553  and  _554
REMARK  229  A    between atoms: _553  and  _556
REMARK  230  A    between atoms: _556  and  _557
REMARK  231  A    between atoms: _560  and  _562
REMARK  232  A    between atoms: _562  and  _563
REMARK  233  A    between atoms: _562  and  _565
REMARK  234  A    between atoms: _565  and  _566
REMARK  235  A    between atoms: _572  and  _574
REMARK  236  A    between atoms: _574  and  _575
REMARK  237  A    between atoms: _577  and  _579
REMARK  238  A    between atoms: _579  and  _580
REMARK  239  A    between atoms: _579  and  _582
REMARK  240  A    between atoms: _582  and  _583
REMARK  241  A    between atoms: _586  and  _588
REMARK  242  A    between atoms: _588  and  _589
REMARK  243  A    between atoms: _588  and  _591
REMARK                            x       y       z     vdW  Elec       q    Type
REMARK                         _______ _______ _______ _____ _____    ______ ____
ROOT
ATOM      1  O   HOH     1       6.996  16.076  12.992  0.00  0.00    +0.000 OA
ENDROOT
TORSDOF 0
REMARK  Name = ../refined-set-2016/3pww/3pww_pocket.pdb
REMARK  243 active torsions:
REMARK  status: ('A' for Active; 'I' for Inactive)
REMARK    1  A    between atoms: _1  and  _3
REMARK    2  A    between atoms: _3  and  _4
REMARK    3  A    between atoms: _3  and  _6
REMARK    4  A    between atoms: _6  and  _7
REMARK    5  A    between atoms: _10  and  _12
REMARK    6  A    between atoms: _12  and  _13
REMARK    7  A    between atoms: _12  and  _15
REMARK    8  A    between atoms: _15  and  _16
REMARK    9  A    between atoms: _19  and  _21
REMARK   10  A    between atoms: _21  and  _22
REMARK   11  A    between atoms: _21  and  _24
REMARK   12  A    between atoms: _24  and  _25
REMARK   13  A    between atoms: _28  and  _30
REMARK   14  A    between atoms: _30  and  _31
REMARK   15  A    between atoms: _30  and  _33
REMARK   16  A    between atoms: _33  and  _34
REMARK   17  A    between atoms: _37  and  _39
REMARK   18  A    between atoms: _39  and  _40
REMARK   19  A    between atoms: _39  and  _42
REMARK   20  A    between atoms: _42  and  _43
REMARK   21  A    between atoms: _46  and  _48
REMARK   22  A    between atoms: _48  and  _49
REMARK   23  A    between atoms: _52  and  _54
REMARK   24  A    between atoms: _54  and  _55
REMARK   25  A    between atoms: _54  and  _57
REMARK   26  A    between atoms: _57  and  _58
REMARK   27  A    between atoms: _63  and  _64
REMARK   28  A    between atoms: _66  and  _68
REMARK   29  A    between atoms: _68  and  _69
REMARK   30  A    between atoms: _68  and  _71
REMARK   31  A    between atoms: _71  and  _72
REMARK   32  A    between atoms: _75  and  _77
REMARK   33  A    between atoms: _77  and  _78
REMARK   34  A    between atoms: _77  and  _80
REMARK   35  A    between atoms: _80  and  _81
REMARK   36  A    between atoms: _87  and  _89
REMARK   37  A    between atoms: _89  and  _90
REMARK   38  A    between atoms: _89  and  _92
REMARK   39  A    between atoms: _92  and  _93
REMARK   40  A    between atoms: _96  and  _98
REMARK   41  A    between atoms: _98  and  _99
REMARK   42  A    between atoms: _98  and  _101
REMARK   43  A    between atoms: _101  and  _102
REMARK   44  A    between atoms: _105  and  _107
REMARK   45  A    between atoms: _107  and  _108
REMARK   46  A    between atoms: _110  and  _112
REMARK   47  A    between atoms: _112  and  _113
REMARK   48  A    between atoms: _112  and  _115
REMARK   49  A    between atoms: _115  and  _116
REMARK   50  A    between atoms: _118  and  _120
REMARK   51  A    between atoms: _120  and  _121
REMARK   52  A    between atoms: _120  and  _123
REMARK   53  A    between atoms: _123  and  _124
REMARK   54  A    between atoms: _126  and  _128
REMARK   55  A    between atoms: _128  and  _129
REMARK   56  A    between atoms: _128  and  _131
REMARK   57  A    between atoms: _131  and  _132
REMARK   58  A    between atoms: _135  and  _137
REMARK   59  A    between atoms: _137  and  _138
REMARK   60  A    between atoms: _137  and  _140
REMARK   61  A    between atoms: _140  and  _141
REMARK   62  A    between atoms: _151  and  _153
REMARK   63  A    between atoms: _153  and  _154
REMARK   64  A    between atoms: _153  and  _156
REMARK   65  A    between atoms: _156  and  _157
REMARK   66  A    between atoms: _159  and  _161
REMARK   67  A    between atoms: _161  and  _162
REMARK   68  A    between atoms: _161  and  _164
REMARK   69  A    between atoms: _164  and  _165
REMARK   70  A    between atoms: _168  and  _170
REMARK   71  A    between atoms: _170  and  _171
REMARK   72  A    between atoms: _170  and  _173
REMARK   73  A    between atoms: _173  and  _174
REMARK   74  A    between atoms: _176  and  _178
REMARK   75  A    between atoms: _178  and  _179
REMARK   76  A    between atoms: _178  and  _181
REMARK   77  A    between atoms: _181  and  _182
REMARK   78  A    between atoms: _187  and  _188
REMARK   79  A    between atoms: _190  and  _192
REMARK   80  A    between atoms: _192  and  _193
REMARK   81  A    between atoms: _195  and  _197
REMARK   82  A    between atoms: _197  and  _198
REMARK   83  A    between atoms: _197  and  _200
REMARK   84  A    between atoms: _200  and  _201
REMARK   85  A    between atoms: _204  and  _206
REMARK   86  A    between atoms: _206  and  _207
REMARK   87  A    between atoms: _209  and  _211
REMARK   88  A    between atoms: _211  and  _212
REMARK   89  A    between atoms: _211  and  _214
REMARK   90  A    between atoms: _214  and  _215
REMARK   91  A    between atoms: _217  and  _219
REMARK   92  A    between atoms: _219  and  _220
REMARK   93  A    between atoms: _219  and  _222
REMARK   94  A    between atoms: _222  and  _223
REMARK   95  A    between atoms: _225  and  _227
REMARK   96  A    between atoms: _227  and  _228
REMARK   97  A    between atoms: _227  and  _230
REMARK   98  A    between atoms: _230  and  _231
REMARK   99  A    between atoms: _233  and  _235
REMARK  100  A    between atoms: _235  and  _236
REMARK  101  A    between atoms: _235  and  _238
REMARK  102  A    between atoms: _238  and  _239
REMARK  103  A    between atoms: _241  and  _243
REMARK  104  A    between atoms: _243  and  _244
REMARK  105  A    between atoms: _243  and  _246
REMARK  106  A    between atoms: _246  and  _247
REMARK  107  A    between atoms: _249  and  _251
REMARK  108  A    between atoms: _251  and  _252
REMARK  109  A    between atoms: _251  and  _254
REMARK  110  A    between atoms: _254  and  _255
REMARK  111  A    between atoms: _261  and  _263
REMARK  112  A    between atoms: _263  and  _264
REMARK  113  A    between atoms: _263  and  _266
REMARK  114  A    between atoms: _266  and  _267
REMARK  115  A    between atoms: _270  and  _272
REMARK  116  A    between atoms: _272  and  _273
REMARK  117  A    between atoms: _272  and  _275
REMARK  118  A    between atoms: _275  and  _276
REMARK  119  A    between atoms: _279  and  _281
REMARK  120  A    between atoms: _281  and  _282
REMARK  121  A    between atoms: _281  and  _284
REMARK  122  A    between atoms: _284  and  _285
REMARK  123  A    between atoms: _288  and  _290
REMARK  124  A    between atoms: _290  and  _291
REMARK  125  A    between atoms: _293  and  _295
REMARK  126  A    between atoms: _295  and  _296
REMARK  127  A    between atoms: _295  and  _298
REMARK  128  A    between atoms: _298  and  _299
REMARK  129  A    between atoms: _302  and  _304
REMARK  130  A    between atoms: _304  and  _305
REMARK  131  A    between atoms: _304  and  _307
REMARK  132  A    between atoms: _307  and  _308
REMARK  133  A    between atoms: _311  and  _313
REMARK  134  A    between atoms: _313  and  _314
REMARK  135  A    between atoms: _316  and  _318
REMARK  136  A    between atoms: _318  and  _319
REMARK  137  A    between atoms: _318  and  _321
REMARK  138  A    between atoms: _321  and  _322
REMARK  139  A    between atoms: _325  and  _327
REMARK  140  A    between atoms: _327  and  _328
REMARK  141  A    between atoms: _331  and  _333
REMARK  142  A    between atoms: _333  and  _334
REMARK  143  A    between atoms: _333  and  _336
REMARK  144  A    between atoms: _336  and  _337
REMARK  145  A    between atoms: _343  and  _345
REMARK  146  A    between atoms: _345  and  _346
REMARK  147  A    between atoms: _345  and  _348
REMARK  148  A    between atoms: _348  and  _349
REMARK  149  A    between atoms: _352  and  _354
REMARK  150  A    between atoms: _354  and  _355
REMARK  151  A    between atoms: _354  and  _357
REMARK  152  A    between atoms: _357  and  _358
REMARK  153  A    between atoms: _363  and  _365
REMARK  154  A    between atoms: _365  and  _366
REMARK  155  A    between atoms: _365  and  _368
REMARK  156  A    between atoms: _368  and  _369
REMARK  157  A    between atoms: _372  and  _374
REMARK  158  A    between atoms: _374  and  _375
REMARK  159  A    between atoms: _374  and  _377
REMARK  160  A    between atoms: _377  and  _378
REMARK  161  A    between atoms: _378  and  _379
REMARK  162  A    between atoms: _384  and  _386
REMARK  163  A    between atoms: _386  and  _387
REMARK  164  A    between atoms: _389  and  _391
REMARK  165  A    between atoms: _391  and  _392
REMARK  166  A    between atoms: _391  and  _394
REMARK  167  A    between atoms: _394  and  _395
REMARK  168  A    between atoms: _401  and  _403
REMARK  169  A    between atoms: _403  and  _404
REMARK  170  A    between atoms: _403  and  _406
REMARK  171  A    between atoms: _406  and  _407
REMARK  172  A    between atoms: _417  and  _419
REMARK  173  A    between atoms: _419  and  _420
REMARK  174  A    between atoms: _419  and  _422
REMARK  175  A    between atoms: _422  and  _423
REMARK  176  A    between atoms: _426  and  _428
REMARK  177  A    between atoms: _428  and  _429
REMARK  178  A    between atoms: _432  and  _434
REMARK  179  A    between atoms: _434  and  _435
REMARK  180  A    between atoms: _434  and  _437
REMARK  181  A    between atoms: _437  and  _438
REMARK  182  A    between atoms: _441  and  _443
REMARK  183  A    between atoms: _443  and  _444
REMARK  184  A    between atoms: _443  and  _446
REMARK  185  A    between atoms: _446  and  _447
REMARK  186  A    between atoms: _450  and  _452
REMARK  187  A    between atoms: _452  and  _453
REMARK  188  A    between atoms: _455  and  _457
REMARK  189  A    between atoms: _457  and  _458
REMARK  190  A    between atoms: _457  and  _460
REMARK  191  A    between atoms: _460  and  _461
REMARK  192  A    between atoms: _464  and  _466
REMARK  193  A    between atoms: _466  and  _467
REMARK  194  A    between atoms: _466  and  _469
REMARK  195  A    between atoms: _469  and  _470
REMARK  196  A    between atoms: _473  and  _475
REMARK  197  A    between atoms: _475  and  _476
REMARK  198  A    between atoms: _475  and  _478
REMARK  199  A    between atoms: _478  and  _479
REMARK  200  A    between atoms: _482  and  _484
REMARK  201  A    between atoms: _484  and  _485
REMARK  202  A    between atoms: _484  and  _487
REMARK  203  A    between atoms: _487  and  _488
REMARK  204  A    between atoms: _491  and  _493
REMARK  205  A    between atoms: _493  and  _494
REMARK  206  A    between atoms: _493  and  _496
REMARK  207  A    between atoms: _496  and  _497
REMARK  208  A    between atoms: _502  and  _503
REMARK  209  A    between atoms: _505  and  _507
REMARK  210  A    between atoms: _507  and  _508
REMARK  211  A    between atoms: _507  and  _510
REMARK  212  A    between atoms: _510  and  _511
REMARK  213  A    between atoms: _517  and  _519
REMARK  214  A    between atoms: _519  and  _520
REMARK  215  A    between atoms: _519  and  _522
REMARK  216  A    between atoms: _522  and  _523
REMARK  217  A    between atoms: _526  and  _528
REMARK  218  A    between atoms: _528  and  _529
REMARK  219  A    between atoms: _531  and  _533
REMARK  220  A    between atoms: _533  and  _534
REMARK  221  A    between atoms: _533  and  _536
REMARK  222  A    between atoms: _536  and  _537
REMARK  223  A    between atoms: _540  and  _542
REMARK  224  A    between atoms: _542  and  _543
REMARK  225  A    between atoms: _542  and  _545
REMARK  226  A    between atoms: _545  and  _546
REMARK  227  A    between atoms: _551  and  _553
REMARK  228  A    between atoms: _553  and  _554
REMARK  229  A    between atoms: _553  and  _556
REMARK  230  A    between atoms: _556  and  _557
REMARK  231  A    between atoms: _560  and  _562
REMARK  232  A    between atoms: _562  and  _563
REMARK  233  A    between atoms: _562  and  _565
REMARK  234  A    between atoms: _565  and  _566
REMARK  235  A    between atoms: _572  and  _574
REMARK  236  A    between atoms: _574  and  _575
REMARK  237  A    between atoms: _577  and  _579
REMARK  238  A    between atoms: _579  and  _580
REMARK  239  A    between atoms: _579  and  _582
REMARK  240  A    between atoms: _582  and  _583
REMARK  241  A    between atoms: _586  and  _588
REMARK  242  A    between atoms: _588  and  _589
REMARK  243  A    between atoms: _588  and  _591
REMARK                            x       y       z     vdW  Elec       q    Type
REMARK                         _______ _______ _______ _____ _____    ______ ____
ROOT
ATOM      1  O   HOH     1     -13.373  -1.427   0.281  0.00  0.00    +0.000 OA
ENDROOT
TORSDOF 0
REMARK  Name = ../refined-set-2016/3pww/3pww_pocket.pdb
REMARK  243 active torsions:
REMARK  status: ('A' for Active; 'I' for Inactive)
REMARK    1  A    between atoms: _1  and  _3
REMARK    2  A    between atoms: _3  and  _4
REMARK    3  A    between atoms: _3  and  _6
REMARK    4  A    between atoms: _6  and  _7
REMARK    5  A    between atoms: _10  and  _12
REMARK    6  A    between atoms: _12  and  _13
REMARK    7  A    between atoms: _12  and  _15
REMARK    8  A    between atoms: _15  and  _16
REMARK    9  A    between atoms: _19  and  _21
REMARK   10  A    between atoms: _21  and  _22
REMARK   11  A    between atoms: _21  and  _24
REMARK   12  A    between atoms: _24  and  _25
REMARK   13  A    between atoms: _28  and  _30
REMARK   14  A    between atoms: _30  and  _31
REMARK   15  A    between atoms: _30  and  _33
REMARK   16  A    between atoms: _33  and  _34
REMARK   17  A    between atoms: _37  and  _39
REMARK   18  A    between atoms: _39  and  _40
REMARK   19  A    between atoms: _39  and  _42
REMARK   20  A    between atoms: _42  and  _43
REMARK   21  A    between atoms: _46  and  _48
REMARK   22  A    between atoms: _48  and  _49
REMARK   23  A    between atoms: _52  and  _54
REMARK   24  A    between atoms: _54  and  _55
REMARK   25  A    between atoms: _54  and  _57
REMARK   26  A    between atoms: _57  and  _58
REMARK   27  A    between atoms: _63  and  _64
REMARK   28  A    between atoms: _66  and  _68
REMARK   29  A    between atoms: _68  and  _69
REMARK   30  A    between atoms: _68  and  _71
REMARK   31  A    between atoms: _71  and  _72
REMARK   32  A    between atoms: _75  and  _77
REMARK   33  A    between atoms: _77  and  _78
REMARK   34  A    between atoms: _77  and  _80
REMARK   35  A    between atoms: _80  and  _81
REMARK   36  A    between atoms: _87  and  _89
REMARK   37  A    between atoms: _89  and  _90
REMARK   38  A    between atoms: _89  and  _92
REMARK   39  A    between atoms: _92  and  _93
REMARK   40  A    between atoms: _96  and  _98
REMARK   41  A    between atoms: _98  and  _99
REMARK   42  A    between atoms: _98  and  _101
REMARK   43  A    between atoms: _101  and  _102
REMARK   44  A    between atoms: _105  and  _107
REMARK   45  A    between atoms: _107  and  _108
REMARK   46  A    between atoms: _110  and  _112
REMARK   47  A    between atoms: _112  and  _113
REMARK   48  A    between atoms: _112  and  _115
REMARK   49  A    between atoms: _115  and  _116
REMARK   50  A    between atoms: _118  and  _120
REMARK   51  A    between atoms: _120  and  _121
REMARK   52  A    between atoms: _120  and  _123
REMARK   53  A    between atoms: _123  and  _124
REMARK   54  A    between atoms: _126  and  _128
REMARK   55  A    between atoms: _128  and  _129
REMARK   56  A    between atoms: _128  and  _131
REMARK   57  A    between atoms: _131  and  _132
REMARK   58  A    between atoms: _135  and  _137
REMARK   59  A    between atoms: _137  and  _138
REMARK   60  A    between atoms: _137  and  _140
REMARK   61  A    between atoms: _140  and  _141
REMARK   62  A    between atoms: _151  and  _153
REMARK   63  A    between atoms: _153  and  _154
REMARK   64  A    between atoms: _153  and  _156
REMARK   65  A    between atoms: _156  and  _157
REMARK   66  A    between atoms: _159  and  _161
REMARK   67  A    between atoms: _161  and  _162
REMARK   68  A    between atoms: _161  and  _164
REMARK   69  A    between atoms: _164  and  _165
REMARK   70  A    between atoms: _168  and  _170
REMARK   71  A    between atoms: _170  and  _171
REMARK   72  A    between atoms: _170  and  _173
REMARK   73  A    between atoms: _173  and  _174
REMARK   74  A    between atoms: _176  and  _178
REMARK   75  A    between atoms: _178  and  _179
REMARK   76  A    between atoms: _178  and  _181
REMARK   77  A    between atoms: _181  and  _182
REMARK   78  A    between atoms: _187  and  _188
REMARK   79  A    between atoms: _190  and  _192
REMARK   80  A    between atoms: _192  and  _193
REMARK   81  A    between atoms: _195  and  _197
REMARK   82  A    between atoms: _197  and  _198
REMARK   83  A    between atoms: _197  and  _200
REMARK   84  A    between atoms: _200  and  _201
REMARK   85  A    between atoms: _204  and  _206
REMARK   86  A    between atoms: _206  and  _207
REMARK   87  A    between atoms: _209  and  _211
REMARK   88  A    between atoms: _211  and  _212
REMARK   89  A    between atoms: _211  and  _214
REMARK   90  A    between atoms: _214  and  _215
REMARK   91  A    between atoms: _217  and  _219
REMARK   92  A    between atoms: _219  and  _220
REMARK   93  A    between atoms: _219  and  _222
REMARK   94  A    between atoms: _222  and  _223
REMARK   95  A    between atoms: _225  and  _227
REMARK   96  A    between atoms: _227  and  _228
REMARK   97  A    between atoms: _227  and  _230
REMARK   98  A    between atoms: _230  and  _231
REMARK   99  A    between atoms: _233  and  _235
REMARK  100  A    between atoms: _235  and  _236
REMARK  101  A    between atoms: _235  and  _238
REMARK  102  A    between atoms: _238  and  _239
REMARK  103  A    between atoms: _241  and  _243
REMARK  104  A    between atoms: _243  and  _244
REMARK  105  A    between atoms: _243  and  _246
REMARK  106  A    between atoms: _246  and  _247
REMARK  107  A    between atoms: _249  and  _251
REMARK  108  A    between atoms: _251  and  _252
REMARK  109  A    between atoms: _251  and  _254
REMARK  110  A    between atoms: _254  and  _255
REMARK  111  A    between atoms: _261  and  _263
REMARK  112  A    between atoms: _263  and  _264
REMARK  113  A    between atoms: _263  and  _266
REMARK  114  A    between atoms: _266  and  _267
REMARK  115  A    between atoms: _270  and  _272
REMARK  116  A    between atoms: _272  and  _273
REMARK  117  A    between atoms: _272  and  _275
REMARK  118  A    between atoms: _275  and  _276
REMARK  119  A    between atoms: _279  and  _281
REMARK  120  A    between atoms: _281  and  _282
REMARK  121  A    between atoms: _281  and  _284
REMARK  122  A    between atoms: _284  and  _285
REMARK  123  A    between atoms: _288  and  _290
REMARK  124  A    between atoms: _290  and  _291
REMARK  125  A    between atoms: _293  and  _295
REMARK  126  A    between atoms: _295  and  _296
REMARK  127  A    between atoms: _295  and  _298
REMARK  128  A    between atoms: _298  and  _299
REMARK  129  A    between atoms: _302  and  _304
REMARK  130  A    between atoms: _304  and  _305
REMARK  131  A    between atoms: _304  and  _307
REMARK  132  A    between atoms: _307  and  _308
REMARK  133  A    between atoms: _311  and  _313
REMARK  134  A    between atoms: _313  and  _314
REMARK  135  A    between atoms: _316  and  _318
REMARK  136  A    between atoms: _318  and  _319
REMARK  137  A    between atoms: _318  and  _321
REMARK  138  A    between atoms: _321  and  _322
REMARK  139  A    between atoms: _325  and  _327
REMARK  140  A    between atoms: _327  and  _328
REMARK  141  A    between atoms: _331  and  _333
REMARK  142  A    between atoms: _333  and  _334
REMARK  143  A    between atoms: _333  and  _336
REMARK  144  A    between atoms: _336  and  _337
REMARK  145  A    between atoms: _343  and  _345
REMARK  146  A    between atoms: _345  and  _346
REMARK  147  A    between atoms: _345  and  _348
REMARK  148  A    between atoms: _348  and  _349
REMARK  149  A    between atoms: _352  and  _354
REMARK  150  A    between atoms: _354  and  _355
REMARK  151  A    between atoms: _354  and  _357
REMARK  152  A    between atoms: _357  and  _358
REMARK  153  A    between atoms: _363  and  _365
REMARK  154  A    between atoms: _365  and  _366
REMARK  155  A    between atoms: _365  and  _368
REMARK  156  A    between atoms: _368  and  _369
REMARK  157  A    between atoms: _372  and  _374
REMARK  158  A    between atoms: _374  and  _375
REMARK  159  A    between atoms: _374  and  _377
REMARK  160  A    between atoms: _377  and  _378
REMARK  161  A    between atoms: _378  and  _379
REMARK  162  A    between atoms: _384  and  _386
REMARK  163  A    between atoms: _386  and  _387
REMARK  164  A    between atoms: _389  and  _391
REMARK  165  A    between atoms: _391  and  _392
REMARK  166  A    between atoms: _391  and  _394
REMARK  167  A    between atoms: _394  and  _395
REMARK  168  A    between atoms: _401  and  _403
REMARK  169  A    between atoms: _403  and  _404
REMARK  170  A    between atoms: _403  and  _406
REMARK  171  A    between atoms: _406  and  _407
REMARK  172  A    between atoms: _417  and  _419
REMARK  173  A    between atoms: _419  and  _420
REMARK  174  A    between atoms: _419  and  _422
REMARK  175  A    between atoms: _422  and  _423
REMARK  176  A    between atoms: _426  and  _428
REMARK  177  A    between atoms: _428  and  _429
REMARK  178  A    between atoms: _432  and  _434
REMARK  179  A    between atoms: _434  and  _435
REMARK  180  A    between atoms: _434  and  _437
REMARK  181  A    between atoms: _437  and  _438
REMARK  182  A    between atoms: _441  and  _443
REMARK  183  A    between atoms: _443  and  _444
REMARK  184  A    between atoms: _443  and  _446
REMARK  185  A    between atoms: _446  and  _447
REMARK  186  A    between atoms: _450  and  _452
REMARK  187  A    between atoms: _452  and  _453
REMARK  188  A    between atoms: _455  and  _457
REMARK  189  A    between atoms: _457  and  _458
REMARK  190  A    between atoms: _457  and  _460
REMARK  191  A    between atoms: _460  and  _461
REMARK  192  A    between atoms: _464  and  _466
REMARK  193  A    between atoms: _466  and  _467
REMARK  194  A    between atoms: _466  and  _469
REMARK  195  A    between atoms: _469  and  _470
REMARK  196  A    between atoms: _473  and  _475
REMARK  197  A    between atoms: _475  and  _476
REMARK  198  A    between atoms: _475  and  _478
REMARK  199  A    between atoms: _478  and  _479
REMARK  200  A    between atoms: _482  and  _484
REMARK  201  A    between atoms: _484  and  _485
REMARK  202  A    between atoms: _484  and  _487
REMARK  203  A    between atoms: _487  and  _488
REMARK  204  A    between atoms: _491  and  _493
REMARK  205  A    between atoms: _493  and  _494
REMARK  206  A    between atoms: _493  and  _496
REMARK  207  A    between atoms: _496  and  _497
REMARK  208  A    between atoms: _502  and  _503
REMARK  209  A    between atoms: _505  and  _507
REMARK  210  A    between atoms: _507  and  _508
REMARK  211  A    between atoms: _507  and  _510
REMARK  212  A    between atoms: _510  and  _511
REMARK  213  A    between atoms: _517  and  _519
REMARK  214  A    between atoms: _519  and  _520
REMARK  215  A    between atoms: _519  and  _522
REMARK  216  A    between atoms: _522  and  _523
REMARK  217  A    between atoms: _526  and  _528
REMARK  218  A    between atoms: _528  and  _529
REMARK  219  A    between atoms: _531  and  _533
REMARK  220  A    between atoms: _533  and  _534
REMARK  221  A    between atoms: _533  and  _536
REMARK  222  A    between atoms: _536  and  _537
REMARK  223  A    between atoms: _540  and  _542
REMARK  224  A    between atoms: _542  and  _543
REMARK  225  A    between atoms: _542  and  _545
REMARK  226  A    between atoms: _545  and  _546
REMARK  227  A    between atoms: _551  and  _553
REMARK  228  A    between atoms: _553  and  _554
REMARK  229  A    between atoms: _553  and  _556
REMARK  230  A    between atoms: _556  and  _557
REMARK  231  A    between atoms: _560  and  _562
REMARK  232  A    between atoms: _562  and  _563
REMARK  233  A    between atoms: _562  and  _565
REMARK  234  A    between atoms: _565  and  _566
REMARK  235  A    between atoms: _572  and  _574
REMARK  236  A    between atoms: _574  and  _575
REMARK  237  A    between atoms: _577  and  _579
REMARK  238  A    between atoms: _579  and  _580
REMARK  239  A    between atoms: _579  and  _582
REMARK  240  A    between atoms: _582  and  _583
REMARK  241  A    between atoms: _586  and  _588
REMARK  242  A    between atoms: _588  and  _589
REMARK  243  A    between atoms: _588  and  _591
REMARK                            x       y       z     vdW  Elec       q    Type
REMARK                         _______ _______ _______ _____ _____    ______ ____
ROOT
ATOM      1  O   HOH     1       5.190  12.107  14.556  0.00  0.00    +0.000 OA
ENDROOT
TORSDOF 0
REMARK  Name = ../refined-set-2016/3pww/3pww_pocket.pdb
REMARK  243 active torsions:
REMARK  status: ('A' for Active; 'I' for Inactive)
REMARK    1  A    between atoms: _1  and  _3
REMARK    2  A    between atoms: _3  and  _4
REMARK    3  A    between atoms: _3  and  _6
REMARK    4  A    between atoms: _6  and  _7
REMARK    5  A    between atoms: _10  and  _12
REMARK    6  A    between atoms: _12  and  _13
REMARK    7  A    between atoms: _12  and  _15
REMARK    8  A    between atoms: _15  and  _16
REMARK    9  A    between atoms: _19  and  _21
REMARK   10  A    between atoms: _21  and  _22
REMARK   11  A    between atoms: _21  and  _24
REMARK   12  A    between atoms: _24  and  _25
REMARK   13  A    between atoms: _28  and  _30
REMARK   14  A    between atoms: _30  and  _31
REMARK   15  A    between atoms: _30  and  _33
REMARK   16  A    between atoms: _33  and  _34
REMARK   17  A    between atoms: _37  and  _39
REMARK   18  A    between atoms: _39  and  _40
REMARK   19  A    between atoms: _39  and  _42
REMARK   20  A    between atoms: _42  and  _43
REMARK   21  A    between atoms: _46  and  _48
REMARK   22  A    between atoms: _48  and  _49
REMARK   23  A    between atoms: _52  and  _54
REMARK   24  A    between atoms: _54  and  _55
REMARK   25  A    between atoms: _54  and  _57
REMARK   26  A    between atoms: _57  and  _58
REMARK   27  A    between atoms: _63  and  _64
REMARK   28  A    between atoms: _66  and  _68
REMARK   29  A    between atoms: _68  and  _69
REMARK   30  A    between atoms: _68  and  _71
REMARK   31  A    between atoms: _71  and  _72
REMARK   32  A    between atoms: _75  and  _77
REMARK   33  A    between atoms: _77  and  _78
REMARK   34  A    between atoms: _77  and  _80
REMARK   35  A    between atoms: _80  and  _81
REMARK   36  A    between atoms: _87  and  _89
REMARK   37  A    between atoms: _89  and  _90
REMARK   38  A    between atoms: _89  and  _92
REMARK   39  A    between atoms: _92  and  _93
REMARK   40  A    between atoms: _96  and  _98
REMARK   41  A    between atoms: _98  and  _99
REMARK   42  A    between atoms: _98  and  _101
REMARK   43  A    between atoms: _101  and  _102
REMARK   44  A    between atoms: _105  and  _107
REMARK   45  A    between atoms: _107  and  _108
REMARK   46  A    between atoms: _110  and  _112
REMARK   47  A    between atoms: _112  and  _113
REMARK   48  A    between atoms: _112  and  _115
REMARK   49  A    between atoms: _115  and  _116
REMARK   50  A    between atoms: _118  and  _120
REMARK   51  A    between atoms: _120  and  _121
REMARK   52  A    between atoms: _120  and  _123
REMARK   53  A    between atoms: _123  and  _124
REMARK   54  A    between atoms: _126  and  _128
REMARK   55  A    between atoms: _128  and  _129
REMARK   56  A    between atoms: _128  and  _131
REMARK   57  A    between atoms: _131  and  _132
REMARK   58  A    between atoms: _135  and  _137
REMARK   59  A    between atoms: _137  and  _138
REMARK   60  A    between atoms: _137  and  _140
REMARK   61  A    between atoms: _140  and  _141
REMARK   62  A    between atoms: _151  and  _153
REMARK   63  A    between atoms: _153  and  _154
REMARK   64  A    between atoms: _153  and  _156
REMARK   65  A    between atoms: _156  and  _157
REMARK   66  A    between atoms: _159  and  _161
REMARK   67  A    between atoms: _161  and  _162
REMARK   68  A    between atoms: _161  and  _164
REMARK   69  A    between atoms: _164  and  _165
REMARK   70  A    between atoms: _168  and  _170
REMARK   71  A    between atoms: _170  and  _171
REMARK   72  A    between atoms: _170  and  _173
REMARK   73  A    between atoms: _173  and  _174
REMARK   74  A    between atoms: _176  and  _178
REMARK   75  A    between atoms: _178  and  _179
REMARK   76  A    between atoms: _178  and  _181
REMARK   77  A    between atoms: _181  and  _182
REMARK   78  A    between atoms: _187  and  _188
REMARK   79  A    between atoms: _190  and  _192
REMARK   80  A    between atoms: _192  and  _193
REMARK   81  A    between atoms: _195  and  _197
REMARK   82  A    between atoms: _197  and  _198
REMARK   83  A    between atoms: _197  and  _200
REMARK   84  A    between atoms: _200  and  _201
REMARK   85  A    between atoms: _204  and  _206
REMARK   86  A    between atoms: _206  and  _207
REMARK   87  A    between atoms: _209  and  _211
REMARK   88  A    between atoms: _211  and  _212
REMARK   89  A    between atoms: _211  and  _214
REMARK   90  A    between atoms: _214  and  _215
REMARK   91  A    between atoms: _217  and  _219
REMARK   92  A    between atoms: _219  and  _220
REMARK   93  A    between atoms: _219  and  _222
REMARK   94  A    between atoms: _222  and  _223
REMARK   95  A    between atoms: _225  and  _227
REMARK   96  A    between atoms: _227  and  _228
REMARK   97  A    between atoms: _227  and  _230
REMARK   98  A    between atoms: _230  and  _231
REMARK   99  A    between atoms: _233  and  _235
REMARK  100  A    between atoms: _235  and  _236
REMARK  101  A    between atoms: _235  and  _238
REMARK  102  A    between atoms: _238  and  _239
REMARK  103  A    between atoms: _241  and  _243
REMARK  104  A    between atoms: _243  and  _244
REMARK  105  A    between atoms: _243  and  _246
REMARK  106  A    between atoms: _246  and  _247
REMARK  107  A    between atoms: _249  and  _251
REMARK  108  A    between atoms: _251  and  _252
REMARK  109  A    between atoms: _251  and  _254
REMARK  110  A    between atoms: _254  and  _255
REMARK  111  A    between atoms: _261  and  _263
REMARK  112  A    between atoms: _263  and  _264
REMARK  113  A    between atoms: _263  and  _266
REMARK  114  A    between atoms: _266  and  _267
REMARK  115  A    between atoms: _270  and  _272
REMARK  116  A    between atoms: _272  and  _273
REMARK  117  A    between atoms: _272  and  _275
REMARK  118  A    between atoms: _275  and  _276
REMARK  119  A    between atoms: _279  and  _281
REMARK  120  A    between atoms: _281  and  _282
REMARK  121  A    between atoms: _281  and  _284
REMARK  122  A    between atoms: _284  and  _285
REMARK  123  A    between atoms: _288  and  _290
REMARK  124  A    between atoms: _290  and  _291
REMARK  125  A    between atoms: _293  and  _295
REMARK  126  A    between atoms: _295  and  _296
REMARK  127  A    between atoms: _295  and  _298
REMARK  128  A    between atoms: _298  and  _299
REMARK  129  A    between atoms: _302  and  _304
REMARK  130  A    between atoms: _304  and  _305
REMARK  131  A    between atoms: _304  and  _307
REMARK  132  A    between atoms: _307  and  _308
REMARK  133  A    between atoms: _311  and  _313
REMARK  134  A    between atoms: _313  and  _314
REMARK  135  A    between atoms: _316  and  _318
REMARK  136  A    between atoms: _318  and  _319
REMARK  137  A    between atoms: _318  and  _321
REMARK  138  A    between atoms: _321  and  _322
REMARK  139  A    between atoms: _325  and  _327
REMARK  140  A    between atoms: _327  and  _328
REMARK  141  A    between atoms: _331  and  _333
REMARK  142  A    between atoms: _333  and  _334
REMARK  143  A    between atoms: _333  and  _336
REMARK  144  A    between atoms: _336  and  _337
REMARK  145  A    between atoms: _343  and  _345
REMARK  146  A    between atoms: _345  and  _346
REMARK  147  A    between atoms: _345  and  _348
REMARK  148  A    between atoms: _348  and  _349
REMARK  149  A    between atoms: _352  and  _354
REMARK  150  A    between atoms: _354  and  _355
REMARK  151  A    between atoms: _354  and  _357
REMARK  152  A    between atoms: _357  and  _358
REMARK  153  A    between atoms: _363  and  _365
REMARK  154  A    between atoms: _365  and  _366
REMARK  155  A    between atoms: _365  and  _368
REMARK  156  A    between atoms: _368  and  _369
REMARK  157  A    between atoms: _372  and  _374
REMARK  158  A    between atoms: _374  and  _375
REMARK  159  A    between atoms: _374  and  _377
REMARK  160  A    between atoms: _377  and  _378
REMARK  161  A    between atoms: _378  and  _379
REMARK  162  A    between atoms: _384  and  _386
REMARK  163  A    between atoms: _386  and  _387
REMARK  164  A    between atoms: _389  and  _391
REMARK  165  A    between atoms: _391  and  _392
REMARK  166  A    between atoms: _391  and  _394
REMARK  167  A    between atoms: _394  and  _395
REMARK  168  A    between atoms: _401  and  _403
REMARK  169  A    between atoms: _403  and  _404
REMARK  170  A    between atoms: _403  and  _406
REMARK  171  A    between atoms: _406  and  _407
REMARK  172  A    between atoms: _417  and  _419
REMARK  173  A    between atoms: _419  and  _420
REMARK  174  A    between atoms: _419  and  _422
REMARK  175  A    between atoms: _422  and  _423
REMARK  176  A    between atoms: _426  and  _428
REMARK  177  A    between atoms: _428  and  _429
REMARK  178  A    between atoms: _432  and  _434
REMARK  179  A    between atoms: _434  and  _435
REMARK  180  A    between atoms: _434  and  _437
REMARK  181  A    between atoms: _437  and  _438
REMARK  182  A    between atoms: _441  and  _443
REMARK  183  A    between atoms: _443  and  _444
REMARK  184  A    between atoms: _443  and  _446
REMARK  185  A    between atoms: _446  and  _447
REMARK  186  A    between atoms: _450  and  _452
REMARK  187  A    between atoms: _452  and  _453
REMARK  188  A    between atoms: _455  and  _457
REMARK  189  A    between atoms: _457  and  _458
REMARK  190  A    between atoms: _457  and  _460
REMARK  191  A    between atoms: _460  and  _461
REMARK  192  A    between atoms: _464  and  _466
REMARK  193  A    between atoms: _466  and  _467
REMARK  194  A    between atoms: _466  and  _469
REMARK  195  A    between atoms: _469  and  _470
REMARK  196  A    between atoms: _473  and  _475
REMARK  197  A    between atoms: _475  and  _476
REMARK  198  A    between atoms: _475  and  _478
REMARK  199  A    between atoms: _478  and  _479
REMARK  200  A    between atoms: _482  and  _484
REMARK  201  A    between atoms: _484  and  _485
REMARK  202  A    between atoms: _484  and  _487
REMARK  203  A    between atoms: _487  and  _488
REMARK  204  A    between atoms: _491  and  _493
REMARK  205  A    between atoms: _493  and  _494
REMARK  206  A    between atoms: _493  and  _496
REMARK  207  A    between atoms: _496  and  _497
REMARK  208  A    between atoms: _502  and  _503
REMARK  209  A    between atoms: _505  and  _507
REMARK  210  A    between atoms: _507  and  _508
REMARK  211  A    between atoms: _507  and  _510
REMARK  212  A    between atoms: _510  and  _511
REMARK  213  A    between atoms: _517  and  _519
REMARK  214  A    between atoms: _519  and  _520
REMARK  215  A    between atoms: _519  and  _522
REMARK  216  A    between atoms: _522  and  _523
REMARK  217  A    between atoms: _526  and  _528
REMARK  218  A    between atoms: _528  and  _529
REMARK  219  A    between atoms: _531  and  _533
REMARK  220  A    between atoms: _533  and  _534
REMARK  221  A    between atoms: _533  and  _536
REMARK  222  A    between atoms: _536  and  _537
REMARK  223  A    between atoms: _540  and  _542
REMARK  224  A    between atoms: _542  and  _543
REMARK  225  A    between atoms: _542  and  _545
REMARK  226  A    between atoms: _545  and  _546
REMARK  227  A    between atoms: _551  and  _553
REMARK  228  A    between atoms: _553  and  _554
REMARK  229  A    between atoms: _553  and  _556
REMARK  230  A    between atoms: _556  and  _557
REMARK  231  A    between atoms: _560  and  _562
REMARK  232  A    between atoms: _562  and  _563
REMARK  233  A    between atoms: _562  and  _565
REMARK  234  A    between atoms: _565  and  _566
REMARK  235  A    between atoms: _572  and  _574
REMARK  236  A    between atoms: _574  and  _575
REMARK  237  A    between atoms: _577  and  _579
REMARK  238  A    between atoms: _579  and  _580
REMARK  239  A    between atoms: _579  and  _582
REMARK  240  A    between atoms: _582  and  _583
REMARK  241  A    between atoms: _586  and  _588
REMARK  242  A    between atoms: _588  and  _589
REMARK  243  A    between atoms: _588  and  _591
REMARK                            x       y       z     vdW  Elec       q    Type
REMARK                         _______ _______ _______ _____ _____    ______ ____
ROOT
ATOM      1  O   HOH     1       5.260  11.555  17.161  0.00  0.00    +0.000 OA
ENDROOT
TORSDOF 0
REMARK  Name = ../refined-set-2016/3pww/3pww_pocket.pdb
REMARK  243 active torsions:
REMARK  status: ('A' for Active; 'I' for Inactive)
REMARK    1  A    between atoms: _1  and  _3
REMARK    2  A    between atoms: _3  and  _4
REMARK    3  A    between atoms: _3  and  _6
REMARK    4  A    between atoms: _6  and  _7
REMARK    5  A    between atoms: _10  and  _12
REMARK    6  A    between atoms: _12  and  _13
REMARK    7  A    between atoms: _12  and  _15
REMARK    8  A    between atoms: _15  and  _16
REMARK    9  A    between atoms: _19  and  _21
REMARK   10  A    between atoms: _21  and  _22
REMARK   11  A    between atoms: _21  and  _24
REMARK   12  A    between atoms: _24  and  _25
REMARK   13  A    between atoms: _28  and  _30
REMARK   14  A    between atoms: _30  and  _31
REMARK   15  A    between atoms: _30  and  _33
REMARK   16  A    between atoms: _33  and  _34
REMARK   17  A    between atoms: _37  and  _39
REMARK   18  A    between atoms: _39  and  _40
REMARK   19  A    between atoms: _39  and  _42
REMARK   20  A    between atoms: _42  and  _43
REMARK   21  A    between atoms: _46  and  _48
REMARK   22  A    between atoms: _48  and  _49
REMARK   23  A    between atoms: _52  and  _54
REMARK   24  A    between atoms: _54  and  _55
REMARK   25  A    between atoms: _54  and  _57
REMARK   26  A    between atoms: _57  and  _58
REMARK   27  A    between atoms: _63  and  _64
REMARK   28  A    between atoms: _66  and  _68
REMARK   29  A    between atoms: _68  and  _69
REMARK   30  A    between atoms: _68  and  _71
REMARK   31  A    between atoms: _71  and  _72
REMARK   32  A    between atoms: _75  and  _77
REMARK   33  A    between atoms: _77  and  _78
REMARK   34  A    between atoms: _77  and  _80
REMARK   35  A    between atoms: _80  and  _81
REMARK   36  A    between atoms: _87  and  _89
REMARK   37  A    between atoms: _89  and  _90
REMARK   38  A    between atoms: _89  and  _92
REMARK   39  A    between atoms: _92  and  _93
REMARK   40  A    between atoms: _96  and  _98
REMARK   41  A    between atoms: _98  and  _99
REMARK   42  A    between atoms: _98  and  _101
REMARK   43  A    between atoms: _101  and  _102
REMARK   44  A    between atoms: _105  and  _107
REMARK   45  A    between atoms: _107  and  _108
REMARK   46  A    between atoms: _110  and  _112
REMARK   47  A    between atoms: _112  and  _113
REMARK   48  A    between atoms: _112  and  _115
REMARK   49  A    between atoms: _115  and  _116
REMARK   50  A    between atoms: _118  and  _120
REMARK   51  A    between atoms: _120  and  _121
REMARK   52  A    between atoms: _120  and  _123
REMARK   53  A    between atoms: _123  and  _124
REMARK   54  A    between atoms: _126  and  _128
REMARK   55  A    between atoms: _128  and  _129
REMARK   56  A    between atoms: _128  and  _131
REMARK   57  A    between atoms: _131  and  _132
REMARK   58  A    between atoms: _135  and  _137
REMARK   59  A    between atoms: _137  and  _138
REMARK   60  A    between atoms: _137  and  _140
REMARK   61  A    between atoms: _140  and  _141
REMARK   62  A    between atoms: _151  and  _153
REMARK   63  A    between atoms: _153  and  _154
REMARK   64  A    between atoms: _153  and  _156
REMARK   65  A    between atoms: _156  and  _157
REMARK   66  A    between atoms: _159  and  _161
REMARK   67  A    between atoms: _161  and  _162
REMARK   68  A    between atoms: _161  and  _164
REMARK   69  A    between atoms: _164  and  _165
REMARK   70  A    between atoms: _168  and  _170
REMARK   71  A    between atoms: _170  and  _171
REMARK   72  A    between atoms: _170  and  _173
REMARK   73  A    between atoms: _173  and  _174
REMARK   74  A    between atoms: _176  and  _178
REMARK   75  A    between atoms: _178  and  _179
REMARK   76  A    between atoms: _178  and  _181
REMARK   77  A    between atoms: _181  and  _182
REMARK   78  A    between atoms: _187  and  _188
REMARK   79  A    between atoms: _190  and  _192
REMARK   80  A    between atoms: _192  and  _193
REMARK   81  A    between atoms: _195  and  _197
REMARK   82  A    between atoms: _197  and  _198
REMARK   83  A    between atoms: _197  and  _200
REMARK   84  A    between atoms: _200  and  _201
REMARK   85  A    between atoms: _204  and  _206
REMARK   86  A    between atoms: _206  and  _207
REMARK   87  A    between atoms: _209  and  _211
REMARK   88  A    between atoms: _211  and  _212
REMARK   89  A    between atoms: _211  and  _214
REMARK   90  A    between atoms: _214  and  _215
REMARK   91  A    between atoms: _217  and  _219
REMARK   92  A    between atoms: _219  and  _220
REMARK   93  A    between atoms: _219  and  _222
REMARK   94  A    between atoms: _222  and  _223
REMARK   95  A    between atoms: _225  and  _227
REMARK   96  A    between atoms: _227  and  _228
REMARK   97  A    between atoms: _227  and  _230
REMARK   98  A    between atoms: _230  and  _231
REMARK   99  A    between atoms: _233  and  _235
REMARK  100  A    between atoms: _235  and  _236
REMARK  101  A    between atoms: _235  and  _238
REMARK  102  A    between atoms: _238  and  _239
REMARK  103  A    between atoms: _241  and  _243
REMARK  104  A    between atoms: _243  and  _244
REMARK  105  A    between atoms: _243  and  _246
REMARK  106  A    between atoms: _246  and  _247
REMARK  107  A    between atoms: _249  and  _251
REMARK  108  A    between atoms: _251  and  _252
REMARK  109  A    between atoms: _251  and  _254
REMARK  110  A    between atoms: _254  and  _255
REMARK  111  A    between atoms: _261  and  _263
REMARK  112  A    between atoms: _263  and  _264
REMARK  113  A    between atoms: _263  and  _266
REMARK  114  A    between atoms: _266  and  _267
REMARK  115  A    between atoms: _270  and  _272
REMARK  116  A    between atoms: _272  and  _273
REMARK  117  A    between atoms: _272  and  _275
REMARK  118  A    between atoms: _275  and  _276
REMARK  119  A    between atoms: _279  and  _281
REMARK  120  A    between atoms: _281  and  _282
REMARK  121  A    between atoms: _281  and  _284
REMARK  122  A    between atoms: _284  and  _285
REMARK  123  A    between atoms: _288  and  _290
REMARK  124  A    between atoms: _290  and  _291
REMARK  125  A    between atoms: _293  and  _295
REMARK  126  A    between atoms: _295  and  _296
REMARK  127  A    between atoms: _295  and  _298
REMARK  128  A    between atoms: _298  and  _299
REMARK  129  A    between atoms: _302  and  _304
REMARK  130  A    between atoms: _304  and  _305
REMARK  131  A    between atoms: _304  and  _307
REMARK  132  A    between atoms: _307  and  _308
REMARK  133  A    between atoms: _311  and  _313
REMARK  134  A    between atoms: _313  and  _314
REMARK  135  A    between atoms: _316  and  _318
REMARK  136  A    between atoms: _318  and  _319
REMARK  137  A    between atoms: _318  and  _321
REMARK  138  A    between atoms: _321  and  _322
REMARK  139  A    between atoms: _325  and  _327
REMARK  140  A    between atoms: _327  and  _328
REMARK  141  A    between atoms: _331  and  _333
REMARK  142  A    between atoms: _333  and  _334
REMARK  143  A    between atoms: _333  and  _336
REMARK  144  A    between atoms: _336  and  _337
REMARK  145  A    between atoms: _343  and  _345
REMARK  146  A    between atoms: _345  and  _346
REMARK  147  A    between atoms: _345  and  _348
REMARK  148  A    between atoms: _348  and  _349
REMARK  149  A    between atoms: _352  and  _354
REMARK  150  A    between atoms: _354  and  _355
REMARK  151  A    between atoms: _354  and  _357
REMARK  152  A    between atoms: _357  and  _358
REMARK  153  A    between atoms: _363  and  _365
REMARK  154  A    between atoms: _365  and  _366
REMARK  155  A    between atoms: _365  and  _368
REMARK  156  A    between atoms: _368  and  _369
REMARK  157  A    between atoms: _372  and  _374
REMARK  158  A    between atoms: _374  and  _375
REMARK  159  A    between atoms: _374  and  _377
REMARK  160  A    between atoms: _377  and  _378
REMARK  161  A    between atoms: _378  and  _379
REMARK  162  A    between atoms: _384  and  _386
REMARK  163  A    between atoms: _386  and  _387
REMARK  164  A    between atoms: _389  and  _391
REMARK  165  A    between atoms: _391  and  _392
REMARK  166  A    between atoms: _391  and  _394
REMARK  167  A    between atoms: _394  and  _395
REMARK  168  A    between atoms: _401  and  _403
REMARK  169  A    between atoms: _403  and  _404
REMARK  170  A    between atoms: _403  and  _406
REMARK  171  A    between atoms: _406  and  _407
REMARK  172  A    between atoms: _417  and  _419
REMARK  173  A    between atoms: _419  and  _420
REMARK  174  A    between atoms: _419  and  _422
REMARK  175  A    between atoms: _422  and  _423
REMARK  176  A    between atoms: _426  and  _428
REMARK  177  A    between atoms: _428  and  _429
REMARK  178  A    between atoms: _432  and  _434
REMARK  179  A    between atoms: _434  and  _435
REMARK  180  A    between atoms: _434  and  _437
REMARK  181  A    between atoms: _437  and  _438
REMARK  182  A    between atoms: _441  and  _443
REMARK  183  A    between atoms: _443  and  _444
REMARK  184  A    between atoms: _443  and  _446
REMARK  185  A    between atoms: _446  and  _447
REMARK  186  A    between atoms: _450  and  _452
REMARK  187  A    between atoms: _452  and  _453
REMARK  188  A    between atoms: _455  and  _457
REMARK  189  A    between atoms: _457  and  _458
REMARK  190  A    between atoms: _457  and  _460
REMARK  191  A    between atoms: _460  and  _461
REMARK  192  A    between atoms: _464  and  _466
REMARK  193  A    between atoms: _466  and  _467
REMARK  194  A    between atoms: _466  and  _469
REMARK  195  A    between atoms: _469  and  _470
REMARK  196  A    between atoms: _473  and  _475
REMARK  197  A    between atoms: _475  and  _476
REMARK  198  A    between atoms: _475  and  _478
REMARK  199  A    between atoms: _478  and  _479
REMARK  200  A    between atoms: _482  and  _484
REMARK  201  A    between atoms: _484  and  _485
REMARK  202  A    between atoms: _484  and  _487
REMARK  203  A    between atoms: _487  and  _488
REMARK  204  A    between atoms: _491  and  _493
REMARK  205  A    between atoms: _493  and  _494
REMARK  206  A    between atoms: _493  and  _496
REMARK  207  A    between atoms: _496  and  _497
REMARK  208  A    between atoms: _502  and  _503
REMARK  209  A    between atoms: _505  and  _507
REMARK  210  A    between atoms: _507  and  _508
REMARK  211  A    between atoms: _507  and  _510
REMARK  212  A    between atoms: _510  and  _511
REMARK  213  A    between atoms: _517  and  _519
REMARK  214  A    between atoms: _519  and  _520
REMARK  215  A    between atoms: _519  and  _522
REMARK  216  A    between atoms: _522  and  _523
REMARK  217  A    between atoms: _526  and  _528
REMARK  218  A    between atoms: _528  and  _529
REMARK  219  A    between atoms: _531  and  _533
REMARK  220  A    between atoms: _533  and  _534
REMARK  221  A    between atoms: _533  and  _536
REMARK  222  A    between atoms: _536  and  _537
REMARK  223  A    between atoms: _540  and  _542
REMARK  224  A    between atoms: _542  and  _543
REMARK  225  A    between atoms: _542  and  _545
REMARK  226  A    between atoms: _545  and  _546
REMARK  227  A    between atoms: _551  and  _553
REMARK  228  A    between atoms: _553  and  _554
REMARK  229  A    between atoms: _553  and  _556
REMARK  230  A    between atoms: _556  and  _557
REMARK  231  A    between atoms: _560  and  _562
REMARK  232  A    between atoms: _562  and  _563
REMARK  233  A    between atoms: _562  and  _565
REMARK  234  A    between atoms: _565  and  _566
REMARK  235  A    between atoms: _572  and  _574
REMARK  236  A    between atoms: _574  and  _575
REMARK  237  A    between atoms: _577  and  _579
REMARK  238  A    between atoms: _579  and  _580
REMARK  239  A    between atoms: _579  and  _582
REMARK  240  A    between atoms: _582  and  _583
REMARK  241  A    between atoms: _586  and  _588
REMARK  242  A    between atoms: _588  and  _589
REMARK  243  A    between atoms: _588  and  _591
REMARK                            x       y       z     vdW  Elec       q    Type
REMARK                         _______ _______ _______ _____ _____    ______ ____
ROOT
ATOM      1  O   HOH     1       5.853   5.304  17.298  0.00  0.00    +0.000 OA
ENDROOT
TORSDOF 0
REMARK  Name = ../refined-set-2016/3pww/3pww_pocket.pdb
REMARK  243 active torsions:
REMARK  status: ('A' for Active; 'I' for Inactive)
REMARK    1  A    between atoms: _1  and  _3
REMARK    2  A    between atoms: _3  and  _4
REMARK    3  A    between atoms: _3  and  _6
REMARK    4  A    between atoms: _6  and  _7
REMARK    5  A    between atoms: _10  and  _12
REMARK    6  A    between atoms: _12  and  _13
REMARK    7  A    between atoms: _12  and  _15
REMARK    8  A    between atoms: _15  and  _16
REMARK    9  A    between atoms: _19  and  _21
REMARK   10  A    between atoms: _21  and  _22
REMARK   11  A    between atoms: _21  and  _24
REMARK   12  A    between atoms: _24  and  _25
REMARK   13  A    between atoms: _28  and  _30
REMARK   14  A    between atoms: _30  and  _31
REMARK   15  A    between atoms: _30  and  _33
REMARK   16  A    between atoms: _33  and  _34
REMARK   17  A    between atoms: _37  and  _39
REMARK   18  A    between atoms: _39  and  _40
REMARK   19  A    between atoms: _39  and  _42
REMARK   20  A    between atoms: _42  and  _43
REMARK   21  A    between atoms: _46  and  _48
REMARK   22  A    between atoms: _48  and  _49
REMARK   23  A    between atoms: _52  and  _54
REMARK   24  A    between atoms: _54  and  _55
REMARK   25  A    between atoms: _54  and  _57
REMARK   26  A    between atoms: _57  and  _58
REMARK   27  A    between atoms: _63  and  _64
REMARK   28  A    between atoms: _66  and  _68
REMARK   29  A    between atoms: _68  and  _69
REMARK   30  A    between atoms: _68  and  _71
REMARK   31  A    between atoms: _71  and  _72
REMARK   32  A    between atoms: _75  and  _77
REMARK   33  A    between atoms: _77  and  _78
REMARK   34  A    between atoms: _77  and  _80
REMARK   35  A    between atoms: _80  and  _81
REMARK   36  A    between atoms: _87  and  _89
REMARK   37  A    between atoms: _89  and  _90
REMARK   38  A    between atoms: _89  and  _92
REMARK   39  A    between atoms: _92  and  _93
REMARK   40  A    between atoms: _96  and  _98
REMARK   41  A    between atoms: _98  and  _99
REMARK   42  A    between atoms: _98  and  _101
REMARK   43  A    between atoms: _101  and  _102
REMARK   44  A    between atoms: _105  and  _107
REMARK   45  A    between atoms: _107  and  _108
REMARK   46  A    between atoms: _110  and  _112
REMARK   47  A    between atoms: _112  and  _113
REMARK   48  A    between atoms: _112  and  _115
REMARK   49  A    between atoms: _115  and  _116
REMARK   50  A    between atoms: _118  and  _120
REMARK   51  A    between atoms: _120  and  _121
REMARK   52  A    between atoms: _120  and  _123
REMARK   53  A    between atoms: _123  and  _124
REMARK   54  A    between atoms: _126  and  _128
REMARK   55  A    between atoms: _128  and  _129
REMARK   56  A    between atoms: _128  and  _131
REMARK   57  A    between atoms: _131  and  _132
REMARK   58  A    between atoms: _135  and  _137
REMARK   59  A    between atoms: _137  and  _138
REMARK   60  A    between atoms: _137  and  _140
REMARK   61  A    between atoms: _140  and  _141
REMARK   62  A    between atoms: _151  and  _153
REMARK   63  A    between atoms: _153  and  _154
REMARK   64  A    between atoms: _153  and  _156
REMARK   65  A    between atoms: _156  and  _157
REMARK   66  A    between atoms: _159  and  _161
REMARK   67  A    between atoms: _161  and  _162
REMARK   68  A    between atoms: _161  and  _164
REMARK   69  A    between atoms: _164  and  _165
REMARK   70  A    between atoms: _168  and  _170
REMARK   71  A    between atoms: _170  and  _171
REMARK   72  A    between atoms: _170  and  _173
REMARK   73  A    between atoms: _173  and  _174
REMARK   74  A    between atoms: _176  and  _178
REMARK   75  A    between atoms: _178  and  _179
REMARK   76  A    between atoms: _178  and  _181
REMARK   77  A    between atoms: _181  and  _182
REMARK   78  A    between atoms: _187  and  _188
REMARK   79  A    between atoms: _190  and  _192
REMARK   80  A    between atoms: _192  and  _193
REMARK   81  A    between atoms: _195  and  _197
REMARK   82  A    between atoms: _197  and  _198
REMARK   83  A    between atoms: _197  and  _200
REMARK   84  A    between atoms: _200  and  _201
REMARK   85  A    between atoms: _204  and  _206
REMARK   86  A    between atoms: _206  and  _207
REMARK   87  A    between atoms: _209  and  _211
REMARK   88  A    between atoms: _211  and  _212
REMARK   89  A    between atoms: _211  and  _214
REMARK   90  A    between atoms: _214  and  _215
REMARK   91  A    between atoms: _217  and  _219
REMARK   92  A    between atoms: _219  and  _220
REMARK   93  A    between atoms: _219  and  _222
REMARK   94  A    between atoms: _222  and  _223
REMARK   95  A    between atoms: _225  and  _227
REMARK   96  A    between atoms: _227  and  _228
REMARK   97  A    between atoms: _227  and  _230
REMARK   98  A    between atoms: _230  and  _231
REMARK   99  A    between atoms: _233  and  _235
REMARK  100  A    between atoms: _235  and  _236
REMARK  101  A    between atoms: _235  and  _238
REMARK  102  A    between atoms: _238  and  _239
REMARK  103  A    between atoms: _241  and  _243
REMARK  104  A    between atoms: _243  and  _244
REMARK  105  A    between atoms: _243  and  _246
REMARK  106  A    between atoms: _246  and  _247
REMARK  107  A    between atoms: _249  and  _251
REMARK  108  A    between atoms: _251  and  _252
REMARK  109  A    between atoms: _251  and  _254
REMARK  110  A    between atoms: _254  and  _255
REMARK  111  A    between atoms: _261  and  _263
REMARK  112  A    between atoms: _263  and  _264
REMARK  113  A    between atoms: _263  and  _266
REMARK  114  A    between atoms: _266  and  _267
REMARK  115  A    between atoms: _270  and  _272
REMARK  116  A    between atoms: _272  and  _273
REMARK  117  A    between atoms: _272  and  _275
REMARK  118  A    between atoms: _275  and  _276
REMARK  119  A    between atoms: _279  and  _281
REMARK  120  A    between atoms: _281  and  _282
REMARK  121  A    between atoms: _281  and  _284
REMARK  122  A    between atoms: _284  and  _285
REMARK  123  A    between atoms: _288  and  _290
REMARK  124  A    between atoms: _290  and  _291
REMARK  125  A    between atoms: _293  and  _295
REMARK  126  A    between atoms: _295  and  _296
REMARK  127  A    between atoms: _295  and  _298
REMARK  128  A    between atoms: _298  and  _299
REMARK  129  A    between atoms: _302  and  _304
REMARK  130  A    between atoms: _304  and  _305
REMARK  131  A    between atoms: _304  and  _307
REMARK  132  A    between atoms: _307  and  _308
REMARK  133  A    between atoms: _311  and  _313
REMARK  134  A    between atoms: _313  and  _314
REMARK  135  A    between atoms: _316  and  _318
REMARK  136  A    between atoms: _318  and  _319
REMARK  137  A    between atoms: _318  and  _321
REMARK  138  A    between atoms: _321  and  _322
REMARK  139  A    between atoms: _325  and  _327
REMARK  140  A    between atoms: _327  and  _328
REMARK  141  A    between atoms: _331  and  _333
REMARK  142  A    between atoms: _333  and  _334
REMARK  143  A    between atoms: _333  and  _336
REMARK  144  A    between atoms: _336  and  _337
REMARK  145  A    between atoms: _343  and  _345
REMARK  146  A    between atoms: _345  and  _346
REMARK  147  A    between atoms: _345  and  _348
REMARK  148  A    between atoms: _348  and  _349
REMARK  149  A    between atoms: _352  and  _354
REMARK  150  A    between atoms: _354  and  _355
REMARK  151  A    between atoms: _354  and  _357
REMARK  152  A    between atoms: _357  and  _358
REMARK  153  A    between atoms: _363  and  _365
REMARK  154  A    between atoms: _365  and  _366
REMARK  155  A    between atoms: _365  and  _368
REMARK  156  A    between atoms: _368  and  _369
REMARK  157  A    between atoms: _372  and  _374
REMARK  158  A    between atoms: _374  and  _375
REMARK  159  A    between atoms: _374  and  _377
REMARK  160  A    between atoms: _377  and  _378
REMARK  161  A    between atoms: _378  and  _379
REMARK  162  A    between atoms: _384  and  _386
REMARK  163  A    between atoms: _386  and  _387
REMARK  164  A    between atoms: _389  and  _391
REMARK  165  A    between atoms: _391  and  _392
REMARK  166  A    between atoms: _391  and  _394
REMARK  167  A    between atoms: _394  and  _395
REMARK  168  A    between atoms: _401  and  _403
REMARK  169  A    between atoms: _403  and  _404
REMARK  170  A    between atoms: _403  and  _406
REMARK  171  A    between atoms: _406  and  _407
REMARK  172  A    between atoms: _417  and  _419
REMARK  173  A    between atoms: _419  and  _420
REMARK  174  A    between atoms: _419  and  _422
REMARK  175  A    between atoms: _422  and  _423
REMARK  176  A    between atoms: _426  and  _428
REMARK  177  A    between atoms: _428  and  _429
REMARK  178  A    between atoms: _432  and  _434
REMARK  179  A    between atoms: _434  and  _435
REMARK  180  A    between atoms: _434  and  _437
REMARK  181  A    between atoms: _437  and  _438
REMARK  182  A    between atoms: _441  and  _443
REMARK  183  A    between atoms: _443  and  _444
REMARK  184  A    between atoms: _443  and  _446
REMARK  185  A    between atoms: _446  and  _447
REMARK  186  A    between atoms: _450  and  _452
REMARK  187  A    between atoms: _452  and  _453
REMARK  188  A    between atoms: _455  and  _457
REMARK  189  A    between atoms: _457  and  _458
REMARK  190  A    between atoms: _457  and  _460
REMARK  191  A    between atoms: _460  and  _461
REMARK  192  A    between atoms: _464  and  _466
REMARK  193  A    between atoms: _466  and  _467
REMARK  194  A    between atoms: _466  and  _469
REMARK  195  A    between atoms: _469  and  _470
REMARK  196  A    between atoms: _473  and  _475
REMARK  197  A    between atoms: _475  and  _476
REMARK  198  A    between atoms: _475  and  _478
REMARK  199  A    between atoms: _478  and  _479
REMARK  200  A    between atoms: _482  and  _484
REMARK  201  A    between atoms: _484  and  _485
REMARK  202  A    between atoms: _484  and  _487
REMARK  203  A    between atoms: _487  and  _488
REMARK  204  A    between atoms: _491  and  _493
REMARK  205  A    between atoms: _493  and  _494
REMARK  206  A    between atoms: _493  and  _496
REMARK  207  A    between atoms: _496  and  _497
REMARK  208  A    between atoms: _502  and  _503
REMARK  209  A    between atoms: _505  and  _507
REMARK  210  A    between atoms: _507  and  _508
REMARK  211  A    between atoms: _507  and  _510
REMARK  212  A    between atoms: _510  and  _511
REMARK  213  A    between atoms: _517  and  _519
REMARK  214  A    between atoms: _519  and  _520
REMARK  215  A    between atoms: _519  and  _522
REMARK  216  A    between atoms: _522  and  _523
REMARK  217  A    between atoms: _526  and  _528
REMARK  218  A    between atoms: _528  and  _529
REMARK  219  A    between atoms: _531  and  _533
REMARK  220  A    between atoms: _533  and  _534
REMARK  221  A    between atoms: _533  and  _536
REMARK  222  A    between atoms: _536  and  _537
REMARK  223  A    between atoms: _540  and  _542
REMARK  224  A    between atoms: _542  and  _543
REMARK  225  A    between atoms: _542  and  _545
REMARK  226  A    between atoms: _545  and  _546
REMARK  227  A    between atoms: _551  and  _553
REMARK  228  A    between atoms: _553  and  _554
REMARK  229  A    between atoms: _553  and  _556
REMARK  230  A    between atoms: _556  and  _557
REMARK  231  A    between atoms: _560  and  _562
REMARK  232  A    between atoms: _562  and  _563
REMARK  233  A    between atoms: _562  and  _565
REMARK  234  A    between atoms: _565  and  _566
REMARK  235  A    between atoms: _572  and  _574
REMARK  236  A    between atoms: _574  and  _575
REMARK  237  A    between atoms: _577  and  _579
REMARK  238  A    between atoms: _579  and  _580
REMARK  239  A    between atoms: _579  and  _582
REMARK  240  A    between atoms: _582  and  _583
REMARK  241  A    between atoms: _586  and  _588
REMARK  242  A    between atoms: _588  and  _589
REMARK  243  A    between atoms: _588  and  _591
REMARK                            x       y       z     vdW  Elec       q    Type
REMARK                         _______ _______ _______ _____ _____    ______ ____
ROOT
ATOM      1  O   HOH     1      -4.095   5.135   3.010  0.00  0.00    +0.000 OA
ENDROOT
TORSDOF 0
REMARK  Name = ../refined-set-2016/3pww/3pww_pocket.pdb
REMARK  243 active torsions:
REMARK  status: ('A' for Active; 'I' for Inactive)
REMARK    1  A    between atoms: _1  and  _3
REMARK    2  A    between atoms: _3  and  _4
REMARK    3  A    between atoms: _3  and  _6
REMARK    4  A    between atoms: _6  and  _7
REMARK    5  A    between atoms: _10  and  _12
REMARK    6  A    between atoms: _12  and  _13
REMARK    7  A    between atoms: _12  and  _15
REMARK    8  A    between atoms: _15  and  _16
REMARK    9  A    between atoms: _19  and  _21
REMARK   10  A    between atoms: _21  and  _22
REMARK   11  A    between atoms: _21  and  _24
REMARK   12  A    between atoms: _24  and  _25
REMARK   13  A    between atoms: _28  and  _30
REMARK   14  A    between atoms: _30  and  _31
REMARK   15  A    between atoms: _30  and  _33
REMARK   16  A    between atoms: _33  and  _34
REMARK   17  A    between atoms: _37  and  _39
REMARK   18  A    between atoms: _39  and  _40
REMARK   19  A    between atoms: _39  and  _42
REMARK   20  A    between atoms: _42  and  _43
REMARK   21  A    between atoms: _46  and  _48
REMARK   22  A    between atoms: _48  and  _49
REMARK   23  A    between atoms: _52  and  _54
REMARK   24  A    between atoms: _54  and  _55
REMARK   25  A    between atoms: _54  and  _57
REMARK   26  A    between atoms: _57  and  _58
REMARK   27  A    between atoms: _63  and  _64
REMARK   28  A    between atoms: _66  and  _68
REMARK   29  A    between atoms: _68  and  _69
REMARK   30  A    between atoms: _68  and  _71
REMARK   31  A    between atoms: _71  and  _72
REMARK   32  A    between atoms: _75  and  _77
REMARK   33  A    between atoms: _77  and  _78
REMARK   34  A    between atoms: _77  and  _80
REMARK   35  A    between atoms: _80  and  _81
REMARK   36  A    between atoms: _87  and  _89
REMARK   37  A    between atoms: _89  and  _90
REMARK   38  A    between atoms: _89  and  _92
REMARK   39  A    between atoms: _92  and  _93
REMARK   40  A    between atoms: _96  and  _98
REMARK   41  A    between atoms: _98  and  _99
REMARK   42  A    between atoms: _98  and  _101
REMARK   43  A    between atoms: _101  and  _102
REMARK   44  A    between atoms: _105  and  _107
REMARK   45  A    between atoms: _107  and  _108
REMARK   46  A    between atoms: _110  and  _112
REMARK   47  A    between atoms: _112  and  _113
REMARK   48  A    between atoms: _112  and  _115
REMARK   49  A    between atoms: _115  and  _116
REMARK   50  A    between atoms: _118  and  _120
REMARK   51  A    between atoms: _120  and  _121
REMARK   52  A    between atoms: _120  and  _123
REMARK   53  A    between atoms: _123  and  _124
REMARK   54  A    between atoms: _126  and  _128
REMARK   55  A    between atoms: _128  and  _129
REMARK   56  A    between atoms: _128  and  _131
REMARK   57  A    between atoms: _131  and  _132
REMARK   58  A    between atoms: _135  and  _137
REMARK   59  A    between atoms: _137  and  _138
REMARK   60  A    between atoms: _137  and  _140
REMARK   61  A    between atoms: _140  and  _141
REMARK   62  A    between atoms: _151  and  _153
REMARK   63  A    between atoms: _153  and  _154
REMARK   64  A    between atoms: _153  and  _156
REMARK   65  A    between atoms: _156  and  _157
REMARK   66  A    between atoms: _159  and  _161
REMARK   67  A    between atoms: _161  and  _162
REMARK   68  A    between atoms: _161  and  _164
REMARK   69  A    between atoms: _164  and  _165
REMARK   70  A    between atoms: _168  and  _170
REMARK   71  A    between atoms: _170  and  _171
REMARK   72  A    between atoms: _170  and  _173
REMARK   73  A    between atoms: _173  and  _174
REMARK   74  A    between atoms: _176  and  _178
REMARK   75  A    between atoms: _178  and  _179
REMARK   76  A    between atoms: _178  and  _181
REMARK   77  A    between atoms: _181  and  _182
REMARK   78  A    between atoms: _187  and  _188
REMARK   79  A    between atoms: _190  and  _192
REMARK   80  A    between atoms: _192  and  _193
REMARK   81  A    between atoms: _195  and  _197
REMARK   82  A    between atoms: _197  and  _198
REMARK   83  A    between atoms: _197  and  _200
REMARK   84  A    between atoms: _200  and  _201
REMARK   85  A    between atoms: _204  and  _206
REMARK   86  A    between atoms: _206  and  _207
REMARK   87  A    between atoms: _209  and  _211
REMARK   88  A    between atoms: _211  and  _212
REMARK   89  A    between atoms: _211  and  _214
REMARK   90  A    between atoms: _214  and  _215
REMARK   91  A    between atoms: _217  and  _219
REMARK   92  A    between atoms: _219  and  _220
REMARK   93  A    between atoms: _219  and  _222
REMARK   94  A    between atoms: _222  and  _223
REMARK   95  A    between atoms: _225  and  _227
REMARK   96  A    between atoms: _227  and  _228
REMARK   97  A    between atoms: _227  and  _230
REMARK   98  A    between atoms: _230  and  _231
REMARK   99  A    between atoms: _233  and  _235
REMARK  100  A    between atoms: _235  and  _236
REMARK  101  A    between atoms: _235  and  _238
REMARK  102  A    between atoms: _238  and  _239
REMARK  103  A    between atoms: _241  and  _243
REMARK  104  A    between atoms: _243  and  _244
REMARK  105  A    between atoms: _243  and  _246
REMARK  106  A    between atoms: _246  and  _247
REMARK  107  A    between atoms: _249  and  _251
REMARK  108  A    between atoms: _251  and  _252
REMARK  109  A    between atoms: _251  and  _254
REMARK  110  A    between atoms: _254  and  _255
REMARK  111  A    between atoms: _261  and  _263
REMARK  112  A    between atoms: _263  and  _264
REMARK  113  A    between atoms: _263  and  _266
REMARK  114  A    between atoms: _266  and  _267
REMARK  115  A    between atoms: _270  and  _272
REMARK  116  A    between atoms: _272  and  _273
REMARK  117  A    between atoms: _272  and  _275
REMARK  118  A    between atoms: _275  and  _276
REMARK  119  A    between atoms: _279  and  _281
REMARK  120  A    between atoms: _281  and  _282
REMARK  121  A    between atoms: _281  and  _284
REMARK  122  A    between atoms: _284  and  _285
REMARK  123  A    between atoms: _288  and  _290
REMARK  124  A    between atoms: _290  and  _291
REMARK  125  A    between atoms: _293  and  _295
REMARK  126  A    between atoms: _295  and  _296
REMARK  127  A    between atoms: _295  and  _298
REMARK  128  A    between atoms: _298  and  _299
REMARK  129  A    between atoms: _302  and  _304
REMARK  130  A    between atoms: _304  and  _305
REMARK  131  A    between atoms: _304  and  _307
REMARK  132  A    between atoms: _307  and  _308
REMARK  133  A    between atoms: _311  and  _313
REMARK  134  A    between atoms: _313  and  _314
REMARK  135  A    between atoms: _316  and  _318
REMARK  136  A    between atoms: _318  and  _319
REMARK  137  A    between atoms: _318  and  _321
REMARK  138  A    between atoms: _321  and  _322
REMARK  139  A    between atoms: _325  and  _327
REMARK  140  A    between atoms: _327  and  _328
REMARK  141  A    between atoms: _331  and  _333
REMARK  142  A    between atoms: _333  and  _334
REMARK  143  A    between atoms: _333  and  _336
REMARK  144  A    between atoms: _336  and  _337
REMARK  145  A    between atoms: _343  and  _345
REMARK  146  A    between atoms: _345  and  _346
REMARK  147  A    between atoms: _345  and  _348
REMARK  148  A    between atoms: _348  and  _349
REMARK  149  A    between atoms: _352  and  _354
REMARK  150  A    between atoms: _354  and  _355
REMARK  151  A    between atoms: _354  and  _357
REMARK  152  A    between atoms: _357  and  _358
REMARK  153  A    between atoms: _363  and  _365
REMARK  154  A    between atoms: _365  and  _366
REMARK  155  A    between atoms: _365  and  _368
REMARK  156  A    between atoms: _368  and  _369
REMARK  157  A    between atoms: _372  and  _374
REMARK  158  A    between atoms: _374  and  _375
REMARK  159  A    between atoms: _374  and  _377
REMARK  160  A    between atoms: _377  and  _378
REMARK  161  A    between atoms: _378  and  _379
REMARK  162  A    between atoms: _384  and  _386
REMARK  163  A    between atoms: _386  and  _387
REMARK  164  A    between atoms: _389  and  _391
REMARK  165  A    between atoms: _391  and  _392
REMARK  166  A    between atoms: _391  and  _394
REMARK  167  A    between atoms: _394  and  _395
REMARK  168  A    between atoms: _401  and  _403
REMARK  169  A    between atoms: _403  and  _404
REMARK  170  A    between atoms: _403  and  _406
REMARK  171  A    between atoms: _406  and  _407
REMARK  172  A    between atoms: _417  and  _419
REMARK  173  A    between atoms: _419  and  _420
REMARK  174  A    between atoms: _419  and  _422
REMARK  175  A    between atoms: _422  and  _423
REMARK  176  A    between atoms: _426  and  _428
REMARK  177  A    between atoms: _428  and  _429
REMARK  178  A    between atoms: _432  and  _434
REMARK  179  A    between atoms: _434  and  _435
REMARK  180  A    between atoms: _434  and  _437
REMARK  181  A    between atoms: _437  and  _438
REMARK  182  A    between atoms: _441  and  _443
REMARK  183  A    between atoms: _443  and  _444
REMARK  184  A    between atoms: _443  and  _446
REMARK  185  A    between atoms: _446  and  _447
REMARK  186  A    between atoms: _450  and  _452
REMARK  187  A    between atoms: _452  and  _453
REMARK  188  A    between atoms: _455  and  _457
REMARK  189  A    between atoms: _457  and  _458
REMARK  190  A    between atoms: _457  and  _460
REMARK  191  A    between atoms: _460  and  _461
REMARK  192  A    between atoms: _464  and  _466
REMARK  193  A    between atoms: _466  and  _467
REMARK  194  A    between atoms: _466  and  _469
REMARK  195  A    between atoms: _469  and  _470
REMARK  196  A    between atoms: _473  and  _475
REMARK  197  A    between atoms: _475  and  _476
REMARK  198  A    between atoms: _475  and  _478
REMARK  199  A    between atoms: _478  and  _479
REMARK  200  A    between atoms: _482  and  _484
REMARK  201  A    between atoms: _484  and  _485
REMARK  202  A    between atoms: _484  and  _487
REMARK  203  A    between atoms: _487  and  _488
REMARK  204  A    between atoms: _491  and  _493
REMARK  205  A    between atoms: _493  and  _494
REMARK  206  A    between atoms: _493  and  _496
REMARK  207  A    between atoms: _496  and  _497
REMARK  208  A    between atoms: _502  and  _503
REMARK  209  A    between atoms: _505  and  _507
REMARK  210  A    between atoms: _507  and  _508
REMARK  211  A    between atoms: _507  and  _510
REMARK  212  A    between atoms: _510  and  _511
REMARK  213  A    between atoms: _517  and  _519
REMARK  214  A    between atoms: _519  and  _520
REMARK  215  A    between atoms: _519  and  _522
REMARK  216  A    between atoms: _522  and  _523
REMARK  217  A    between atoms: _526  and  _528
REMARK  218  A    between atoms: _528  and  _529
REMARK  219  A    between atoms: _531  and  _533
REMARK  220  A    between atoms: _533  and  _534
REMARK  221  A    between atoms: _533  and  _536
REMARK  222  A    between atoms: _536  and  _537
REMARK  223  A    between atoms: _540  and  _542
REMARK  224  A    between atoms: _542  and  _543
REMARK  225  A    between atoms: _542  and  _545
REMARK  226  A    between atoms: _545  and  _546
REMARK  227  A    between atoms: _551  and  _553
REMARK  228  A    between atoms: _553  and  _554
REMARK  229  A    between atoms: _553  and  _556
REMARK  230  A    between atoms: _556  and  _557
REMARK  231  A    between atoms: _560  and  _562
REMARK  232  A    between atoms: _562  and  _563
REMARK  233  A    between atoms: _562  and  _565
REMARK  234  A    between atoms: _565  and  _566
REMARK  235  A    between atoms: _572  and  _574
REMARK  236  A    between atoms: _574  and  _575
REMARK  237  A    between atoms: _577  and  _579
REMARK  238  A    between atoms: _579  and  _580
REMARK  239  A    between atoms: _579  and  _582
REMARK  240  A    between atoms: _582  and  _583
REMARK  241  A    between atoms: _586  and  _588
REMARK  242  A    between atoms: _588  and  _589
REMARK  243  A    between atoms: _588  and  _591
REMARK                            x       y       z     vdW  Elec       q    Type
REMARK                         _______ _______ _______ _____ _____    ______ ____
ROOT
ATOM      1  O   HOH     1       8.851   6.676   7.493  0.00  0.00    +0.000 OA
ENDROOT
TORSDOF 0
REMARK  Name = ../refined-set-2016/3pww/3pww_pocket.pdb
REMARK  243 active torsions:
REMARK  status: ('A' for Active; 'I' for Inactive)
REMARK    1  A    between atoms: _1  and  _3
REMARK    2  A    between atoms: _3  and  _4
REMARK    3  A    between atoms: _3  and  _6
REMARK    4  A    between atoms: _6  and  _7
REMARK    5  A    between atoms: _10  and  _12
REMARK    6  A    between atoms: _12  and  _13
REMARK    7  A    between atoms: _12  and  _15
REMARK    8  A    between atoms: _15  and  _16
REMARK    9  A    between atoms: _19  and  _21
REMARK   10  A    between atoms: _21  and  _22
REMARK   11  A    between atoms: _21  and  _24
REMARK   12  A    between atoms: _24  and  _25
REMARK   13  A    between atoms: _28  and  _30
REMARK   14  A    between atoms: _30  and  _31
REMARK   15  A    between atoms: _30  and  _33
REMARK   16  A    between atoms: _33  and  _34
REMARK   17  A    between atoms: _37  and  _39
REMARK   18  A    between atoms: _39  and  _40
REMARK   19  A    between atoms: _39  and  _42
REMARK   20  A    between atoms: _42  and  _43
REMARK   21  A    between atoms: _46  and  _48
REMARK   22  A    between atoms: _48  and  _49
REMARK   23  A    between atoms: _52  and  _54
REMARK   24  A    between atoms: _54  and  _55
REMARK   25  A    between atoms: _54  and  _57
REMARK   26  A    between atoms: _57  and  _58
REMARK   27  A    between atoms: _63  and  _64
REMARK   28  A    between atoms: _66  and  _68
REMARK   29  A    between atoms: _68  and  _69
REMARK   30  A    between atoms: _68  and  _71
REMARK   31  A    between atoms: _71  and  _72
REMARK   32  A    between atoms: _75  and  _77
REMARK   33  A    between atoms: _77  and  _78
REMARK   34  A    between atoms: _77  and  _80
REMARK   35  A    between atoms: _80  and  _81
REMARK   36  A    between atoms: _87  and  _89
REMARK   37  A    between atoms: _89  and  _90
REMARK   38  A    between atoms: _89  and  _92
REMARK   39  A    between atoms: _92  and  _93
REMARK   40  A    between atoms: _96  and  _98
REMARK   41  A    between atoms: _98  and  _99
REMARK   42  A    between atoms: _98  and  _101
REMARK   43  A    between atoms: _101  and  _102
REMARK   44  A    between atoms: _105  and  _107
REMARK   45  A    between atoms: _107  and  _108
REMARK   46  A    between atoms: _110  and  _112
REMARK   47  A    between atoms: _112  and  _113
REMARK   48  A    between atoms: _112  and  _115
REMARK   49  A    between atoms: _115  and  _116
REMARK   50  A    between atoms: _118  and  _120
REMARK   51  A    between atoms: _120  and  _121
REMARK   52  A    between atoms: _120  and  _123
REMARK   53  A    between atoms: _123  and  _124
REMARK   54  A    between atoms: _126  and  _128
REMARK   55  A    between atoms: _128  and  _129
REMARK   56  A    between atoms: _128  and  _131
REMARK   57  A    between atoms: _131  and  _132
REMARK   58  A    between atoms: _135  and  _137
REMARK   59  A    between atoms: _137  and  _138
REMARK   60  A    between atoms: _137  and  _140
REMARK   61  A    between atoms: _140  and  _141
REMARK   62  A    between atoms: _151  and  _153
REMARK   63  A    between atoms: _153  and  _154
REMARK   64  A    between atoms: _153  and  _156
REMARK   65  A    between atoms: _156  and  _157
REMARK   66  A    between atoms: _159  and  _161
REMARK   67  A    between atoms: _161  and  _162
REMARK   68  A    between atoms: _161  and  _164
REMARK   69  A    between atoms: _164  and  _165
REMARK   70  A    between atoms: _168  and  _170
REMARK   71  A    between atoms: _170  and  _171
REMARK   72  A    between atoms: _170  and  _173
REMARK   73  A    between atoms: _173  and  _174
REMARK   74  A    between atoms: _176  and  _178
REMARK   75  A    between atoms: _178  and  _179
REMARK   76  A    between atoms: _178  and  _181
REMARK   77  A    between atoms: _181  and  _182
REMARK   78  A    between atoms: _187  and  _188
REMARK   79  A    between atoms: _190  and  _192
REMARK   80  A    between atoms: _192  and  _193
REMARK   81  A    between atoms: _195  and  _197
REMARK   82  A    between atoms: _197  and  _198
REMARK   83  A    between atoms: _197  and  _200
REMARK   84  A    between atoms: _200  and  _201
REMARK   85  A    between atoms: _204  and  _206
REMARK   86  A    between atoms: _206  and  _207
REMARK   87  A    between atoms: _209  and  _211
REMARK   88  A    between atoms: _211  and  _212
REMARK   89  A    between atoms: _211  and  _214
REMARK   90  A    between atoms: _214  and  _215
REMARK   91  A    between atoms: _217  and  _219
REMARK   92  A    between atoms: _219  and  _220
REMARK   93  A    between atoms: _219  and  _222
REMARK   94  A    between atoms: _222  and  _223
REMARK   95  A    between atoms: _225  and  _227
REMARK   96  A    between atoms: _227  and  _228
REMARK   97  A    between atoms: _227  and  _230
REMARK   98  A    between atoms: _230  and  _231
REMARK   99  A    between atoms: _233  and  _235
REMARK  100  A    between atoms: _235  and  _236
REMARK  101  A    between atoms: _235  and  _238
REMARK  102  A    between atoms: _238  and  _239
REMARK  103  A    between atoms: _241  and  _243
REMARK  104  A    between atoms: _243  and  _244
REMARK  105  A    between atoms: _243  and  _246
REMARK  106  A    between atoms: _246  and  _247
REMARK  107  A    between atoms: _249  and  _251
REMARK  108  A    between atoms: _251  and  _252
REMARK  109  A    between atoms: _251  and  _254
REMARK  110  A    between atoms: _254  and  _255
REMARK  111  A    between atoms: _261  and  _263
REMARK  112  A    between atoms: _263  and  _264
REMARK  113  A    between atoms: _263  and  _266
REMARK  114  A    between atoms: _266  and  _267
REMARK  115  A    between atoms: _270  and  _272
REMARK  116  A    between atoms: _272  and  _273
REMARK  117  A    between atoms: _272  and  _275
REMARK  118  A    between atoms: _275  and  _276
REMARK  119  A    between atoms: _279  and  _281
REMARK  120  A    between atoms: _281  and  _282
REMARK  121  A    between atoms: _281  and  _284
REMARK  122  A    between atoms: _284  and  _285
REMARK  123  A    between atoms: _288  and  _290
REMARK  124  A    between atoms: _290  and  _291
REMARK  125  A    between atoms: _293  and  _295
REMARK  126  A    between atoms: _295  and  _296
REMARK  127  A    between atoms: _295  and  _298
REMARK  128  A    between atoms: _298  and  _299
REMARK  129  A    between atoms: _302  and  _304
REMARK  130  A    between atoms: _304  and  _305
REMARK  131  A    between atoms: _304  and  _307
REMARK  132  A    between atoms: _307  and  _308
REMARK  133  A    between atoms: _311  and  _313
REMARK  134  A    between atoms: _313  and  _314
REMARK  135  A    between atoms: _316  and  _318
REMARK  136  A    between atoms: _318  and  _319
REMARK  137  A    between atoms: _318  and  _321
REMARK  138  A    between atoms: _321  and  _322
REMARK  139  A    between atoms: _325  and  _327
REMARK  140  A    between atoms: _327  and  _328
REMARK  141  A    between atoms: _331  and  _333
REMARK  142  A    between atoms: _333  and  _334
REMARK  143  A    between atoms: _333  and  _336
REMARK  144  A    between atoms: _336  and  _337
REMARK  145  A    between atoms: _343  and  _345
REMARK  146  A    between atoms: _345  and  _346
REMARK  147  A    between atoms: _345  and  _348
REMARK  148  A    between atoms: _348  and  _349
REMARK  149  A    between atoms: _352  and  _354
REMARK  150  A    between atoms: _354  and  _355
REMARK  151  A    between atoms: _354  and  _357
REMARK  152  A    between atoms: _357  and  _358
REMARK  153  A    between atoms: _363  and  _365
REMARK  154  A    between atoms: _365  and  _366
REMARK  155  A    between atoms: _365  and  _368
REMARK  156  A    between atoms: _368  and  _369
REMARK  157  A    between atoms: _372  and  _374
REMARK  158  A    between atoms: _374  and  _375
REMARK  159  A    between atoms: _374  and  _377
REMARK  160  A    between atoms: _377  and  _378
REMARK  161  A    between atoms: _378  and  _379
REMARK  162  A    between atoms: _384  and  _386
REMARK  163  A    between atoms: _386  and  _387
REMARK  164  A    between atoms: _389  and  _391
REMARK  165  A    between atoms: _391  and  _392
REMARK  166  A    between atoms: _391  and  _394
REMARK  167  A    between atoms: _394  and  _395
REMARK  168  A    between atoms: _401  and  _403
REMARK  169  A    between atoms: _403  and  _404
REMARK  170  A    between atoms: _403  and  _406
REMARK  171  A    between atoms: _406  and  _407
REMARK  172  A    between atoms: _417  and  _419
REMARK  173  A    between atoms: _419  and  _420
REMARK  174  A    between atoms: _419  and  _422
REMARK  175  A    between atoms: _422  and  _423
REMARK  176  A    between atoms: _426  and  _428
REMARK  177  A    between atoms: _428  and  _429
REMARK  178  A    between atoms: _432  and  _434
REMARK  179  A    between atoms: _434  and  _435
REMARK  180  A    between atoms: _434  and  _437
REMARK  181  A    between atoms: _437  and  _438
REMARK  182  A    between atoms: _441  and  _443
REMARK  183  A    between atoms: _443  and  _444
REMARK  184  A    between atoms: _443  and  _446
REMARK  185  A    between atoms: _446  and  _447
REMARK  186  A    between atoms: _450  and  _452
REMARK  187  A    between atoms: _452  and  _453
REMARK  188  A    between atoms: _455  and  _457
REMARK  189  A    between atoms: _457  and  _458
REMARK  190  A    between atoms: _457  and  _460
REMARK  191  A    between atoms: _460  and  _461
REMARK  192  A    between atoms: _464  and  _466
REMARK  193  A    between atoms: _466  and  _467
REMARK  194  A    between atoms: _466  and  _469
REMARK  195  A    between atoms: _469  and  _470
REMARK  196  A    between atoms: _473  and  _475
REMARK  197  A    between atoms: _475  and  _476
REMARK  198  A    between atoms: _475  and  _478
REMARK  199  A    between atoms: _478  and  _479
REMARK  200  A    between atoms: _482  and  _484
REMARK  201  A    between atoms: _484  and  _485
REMARK  202  A    between atoms: _484  and  _487
REMARK  203  A    between atoms: _487  and  _488
REMARK  204  A    between atoms: _491  and  _493
REMARK  205  A    between atoms: _493  and  _494
REMARK  206  A    between atoms: _493  and  _496
REMARK  207  A    between atoms: _496  and  _497
REMARK  208  A    between atoms: _502  and  _503
REMARK  209  A    between atoms: _505  and  _507
REMARK  210  A    between atoms: _507  and  _508
REMARK  211  A    between atoms: _507  and  _510
REMARK  212  A    between atoms: _510  and  _511
REMARK  213  A    between atoms: _517  and  _519
REMARK  214  A    between atoms: _519  and  _520
REMARK  215  A    between atoms: _519  and  _522
REMARK  216  A    between atoms: _522  and  _523
REMARK  217  A    between atoms: _526  and  _528
REMARK  218  A    between atoms: _528  and  _529
REMARK  219  A    between atoms: _531  and  _533
REMARK  220  A    between atoms: _533  and  _534
REMARK  221  A    between atoms: _533  and  _536
REMARK  222  A    between atoms: _536  and  _537
REMARK  223  A    between atoms: _540  and  _542
REMARK  224  A    between atoms: _542  and  _543
REMARK  225  A    between atoms: _542  and  _545
REMARK  226  A    between atoms: _545  and  _546
REMARK  227  A    between atoms: _551  and  _553
REMARK  228  A    between atoms: _553  and  _554
REMARK  229  A    between atoms: _553  and  _556
REMARK  230  A    between atoms: _556  and  _557
REMARK  231  A    between atoms: _560  and  _562
REMARK  232  A    between atoms: _562  and  _563
REMARK  233  A    between atoms: _562  and  _565
REMARK  234  A    between atoms: _565  and  _566
REMARK  235  A    between atoms: _572  and  _574
REMARK  236  A    between atoms: _574  and  _575
REMARK  237  A    between atoms: _577  and  _579
REMARK  238  A    between atoms: _579  and  _580
REMARK  239  A    between atoms: _579  and  _582
REMARK  240  A    between atoms: _582  and  _583
REMARK  241  A    between atoms: _586  and  _588
REMARK  242  A    between atoms: _588  and  _589
REMARK  243  A    between atoms: _588  and  _591
REMARK                            x       y       z     vdW  Elec       q    Type
REMARK                         _______ _______ _______ _____ _____    ______ ____
ROOT
ATOM      1  O   HOH     1      -1.038  -0.571   7.162  0.00  0.00    +0.000 OA
ENDROOT
TORSDOF 0
REMARK  Name = ../refined-set-2016/3pww/3pww_pocket.pdb
REMARK  243 active torsions:
REMARK  status: ('A' for Active; 'I' for Inactive)
REMARK    1  A    between atoms: _1  and  _3
REMARK    2  A    between atoms: _3  and  _4
REMARK    3  A    between atoms: _3  and  _6
REMARK    4  A    between atoms: _6  and  _7
REMARK    5  A    between atoms: _10  and  _12
REMARK    6  A    between atoms: _12  and  _13
REMARK    7  A    between atoms: _12  and  _15
REMARK    8  A    between atoms: _15  and  _16
REMARK    9  A    between atoms: _19  and  _21
REMARK   10  A    between atoms: _21  and  _22
REMARK   11  A    between atoms: _21  and  _24
REMARK   12  A    between atoms: _24  and  _25
REMARK   13  A    between atoms: _28  and  _30
REMARK   14  A    between atoms: _30  and  _31
REMARK   15  A    between atoms: _30  and  _33
REMARK   16  A    between atoms: _33  and  _34
REMARK   17  A    between atoms: _37  and  _39
REMARK   18  A    between atoms: _39  and  _40
REMARK   19  A    between atoms: _39  and  _42
REMARK   20  A    between atoms: _42  and  _43
REMARK   21  A    between atoms: _46  and  _48
REMARK   22  A    between atoms: _48  and  _49
REMARK   23  A    between atoms: _52  and  _54
REMARK   24  A    between atoms: _54  and  _55
REMARK   25  A    between atoms: _54  and  _57
REMARK   26  A    between atoms: _57  and  _58
REMARK   27  A    between atoms: _63  and  _64
REMARK   28  A    between atoms: _66  and  _68
REMARK   29  A    between atoms: _68  and  _69
REMARK   30  A    between atoms: _68  and  _71
REMARK   31  A    between atoms: _71  and  _72
REMARK   32  A    between atoms: _75  and  _77
REMARK   33  A    between atoms: _77  and  _78
REMARK   34  A    between atoms: _77  and  _80
REMARK   35  A    between atoms: _80  and  _81
REMARK   36  A    between atoms: _87  and  _89
REMARK   37  A    between atoms: _89  and  _90
REMARK   38  A    between atoms: _89  and  _92
REMARK   39  A    between atoms: _92  and  _93
REMARK   40  A    between atoms: _96  and  _98
REMARK   41  A    between atoms: _98  and  _99
REMARK   42  A    between atoms: _98  and  _101
REMARK   43  A    between atoms: _101  and  _102
REMARK   44  A    between atoms: _105  and  _107
REMARK   45  A    between atoms: _107  and  _108
REMARK   46  A    between atoms: _110  and  _112
REMARK   47  A    between atoms: _112  and  _113
REMARK   48  A    between atoms: _112  and  _115
REMARK   49  A    between atoms: _115  and  _116
REMARK   50  A    between atoms: _118  and  _120
REMARK   51  A    between atoms: _120  and  _121
REMARK   52  A    between atoms: _120  and  _123
REMARK   53  A    between atoms: _123  and  _124
REMARK   54  A    between atoms: _126  and  _128
REMARK   55  A    between atoms: _128  and  _129
REMARK   56  A    between atoms: _128  and  _131
REMARK   57  A    between atoms: _131  and  _132
REMARK   58  A    between atoms: _135  and  _137
REMARK   59  A    between atoms: _137  and  _138
REMARK   60  A    between atoms: _137  and  _140
REMARK   61  A    between atoms: _140  and  _141
REMARK   62  A    between atoms: _151  and  _153
REMARK   63  A    between atoms: _153  and  _154
REMARK   64  A    between atoms: _153  and  _156
REMARK   65  A    between atoms: _156  and  _157
REMARK   66  A    between atoms: _159  and  _161
REMARK   67  A    between atoms: _161  and  _162
REMARK   68  A    between atoms: _161  and  _164
REMARK   69  A    between atoms: _164  and  _165
REMARK   70  A    between atoms: _168  and  _170
REMARK   71  A    between atoms: _170  and  _171
REMARK   72  A    between atoms: _170  and  _173
REMARK   73  A    between atoms: _173  and  _174
REMARK   74  A    between atoms: _176  and  _178
REMARK   75  A    between atoms: _178  and  _179
REMARK   76  A    between atoms: _178  and  _181
REMARK   77  A    between atoms: _181  and  _182
REMARK   78  A    between atoms: _187  and  _188
REMARK   79  A    between atoms: _190  and  _192
REMARK   80  A    between atoms: _192  and  _193
REMARK   81  A    between atoms: _195  and  _197
REMARK   82  A    between atoms: _197  and  _198
REMARK   83  A    between atoms: _197  and  _200
REMARK   84  A    between atoms: _200  and  _201
REMARK   85  A    between atoms: _204  and  _206
REMARK   86  A    between atoms: _206  and  _207
REMARK   87  A    between atoms: _209  and  _211
REMARK   88  A    between atoms: _211  and  _212
REMARK   89  A    between atoms: _211  and  _214
REMARK   90  A    between atoms: _214  and  _215
REMARK   91  A    between atoms: _217  and  _219
REMARK   92  A    between atoms: _219  and  _220
REMARK   93  A    between atoms: _219  and  _222
REMARK   94  A    between atoms: _222  and  _223
REMARK   95  A    between atoms: _225  and  _227
REMARK   96  A    between atoms: _227  and  _228
REMARK   97  A    between atoms: _227  and  _230
REMARK   98  A    between atoms: _230  and  _231
REMARK   99  A    between atoms: _233  and  _235
REMARK  100  A    between atoms: _235  and  _236
REMARK  101  A    between atoms: _235  and  _238
REMARK  102  A    between atoms: _238  and  _239
REMARK  103  A    between atoms: _241  and  _243
REMARK  104  A    between atoms: _243  and  _244
REMARK  105  A    between atoms: _243  and  _246
REMARK  106  A    between atoms: _246  and  _247
REMARK  107  A    between atoms: _249  and  _251
REMARK  108  A    between atoms: _251  and  _252
REMARK  109  A    between atoms: _251  and  _254
REMARK  110  A    between atoms: _254  and  _255
REMARK  111  A    between atoms: _261  and  _263
REMARK  112  A    between atoms: _263  and  _264
REMARK  113  A    between atoms: _263  and  _266
REMARK  114  A    between atoms: _266  and  _267
REMARK  115  A    between atoms: _270  and  _272
REMARK  116  A    between atoms: _272  and  _273
REMARK  117  A    between atoms: _272  and  _275
REMARK  118  A    between atoms: _275  and  _276
REMARK  119  A    between atoms: _279  and  _281
REMARK  120  A    between atoms: _281  and  _282
REMARK  121  A    between atoms: _281  and  _284
REMARK  122  A    between atoms: _284  and  _285
REMARK  123  A    between atoms: _288  and  _290
REMARK  124  A    between atoms: _290  and  _291
REMARK  125  A    between atoms: _293  and  _295
REMARK  126  A    between atoms: _295  and  _296
REMARK  127  A    between atoms: _295  and  _298
REMARK  128  A    between atoms: _298  and  _299
REMARK  129  A    between atoms: _302  and  _304
REMARK  130  A    between atoms: _304  and  _305
REMARK  131  A    between atoms: _304  and  _307
REMARK  132  A    between atoms: _307  and  _308
REMARK  133  A    between atoms: _311  and  _313
REMARK  134  A    between atoms: _313  and  _314
REMARK  135  A    between atoms: _316  and  _318
REMARK  136  A    between atoms: _318  and  _319
REMARK  137  A    between atoms: _318  and  _321
REMARK  138  A    between atoms: _321  and  _322
REMARK  139  A    between atoms: _325  and  _327
REMARK  140  A    between atoms: _327  and  _328
REMARK  141  A    between atoms: _331  and  _333
REMARK  142  A    between atoms: _333  and  _334
REMARK  143  A    between atoms: _333  and  _336
REMARK  144  A    between atoms: _336  and  _337
REMARK  145  A    between atoms: _343  and  _345
REMARK  146  A    between atoms: _345  and  _346
REMARK  147  A    between atoms: _345  and  _348
REMARK  148  A    between atoms: _348  and  _349
REMARK  149  A    between atoms: _352  and  _354
REMARK  150  A    between atoms: _354  and  _355
REMARK  151  A    between atoms: _354  and  _357
REMARK  152  A    between atoms: _357  and  _358
REMARK  153  A    between atoms: _363  and  _365
REMARK  154  A    between atoms: _365  and  _366
REMARK  155  A    between atoms: _365  and  _368
REMARK  156  A    between atoms: _368  and  _369
REMARK  157  A    between atoms: _372  and  _374
REMARK  158  A    between atoms: _374  and  _375
REMARK  159  A    between atoms: _374  and  _377
REMARK  160  A    between atoms: _377  and  _378
REMARK  161  A    between atoms: _378  and  _379
REMARK  162  A    between atoms: _384  and  _386
REMARK  163  A    between atoms: _386  and  _387
REMARK  164  A    between atoms: _389  and  _391
REMARK  165  A    between atoms: _391  and  _392
REMARK  166  A    between atoms: _391  and  _394
REMARK  167  A    between atoms: _394  and  _395
REMARK  168  A    between atoms: _401  and  _403
REMARK  169  A    between atoms: _403  and  _404
REMARK  170  A    between atoms: _403  and  _406
REMARK  171  A    between atoms: _406  and  _407
REMARK  172  A    between atoms: _417  and  _419
REMARK  173  A    between atoms: _419  and  _420
REMARK  174  A    between atoms: _419  and  _422
REMARK  175  A    between atoms: _422  and  _423
REMARK  176  A    between atoms: _426  and  _428
REMARK  177  A    between atoms: _428  and  _429
REMARK  178  A    between atoms: _432  and  _434
REMARK  179  A    between atoms: _434  and  _435
REMARK  180  A    between atoms: _434  and  _437
REMARK  181  A    between atoms: _437  and  _438
REMARK  182  A    between atoms: _441  and  _443
REMARK  183  A    between atoms: _443  and  _444
REMARK  184  A    between atoms: _443  and  _446
REMARK  185  A    between atoms: _446  and  _447
REMARK  186  A    between atoms: _450  and  _452
REMARK  187  A    between atoms: _452  and  _453
REMARK  188  A    between atoms: _455  and  _457
REMARK  189  A    between atoms: _457  and  _458
REMARK  190  A    between atoms: _457  and  _460
REMARK  191  A    between atoms: _460  and  _461
REMARK  192  A    between atoms: _464  and  _466
REMARK  193  A    between atoms: _466  and  _467
REMARK  194  A    between atoms: _466  and  _469
REMARK  195  A    between atoms: _469  and  _470
REMARK  196  A    between atoms: _473  and  _475
REMARK  197  A    between atoms: _475  and  _476
REMARK  198  A    between atoms: _475  and  _478
REMARK  199  A    between atoms: _478  and  _479
REMARK  200  A    between atoms: _482  and  _484
REMARK  201  A    between atoms: _484  and  _485
REMARK  202  A    between atoms: _484  and  _487
REMARK  203  A    between atoms: _487  and  _488
REMARK  204  A    between atoms: _491  and  _493
REMARK  205  A    between atoms: _493  and  _494
REMARK  206  A    between atoms: _493  and  _496
REMARK  207  A    between atoms: _496  and  _497
REMARK  208  A    between atoms: _502  and  _503
REMARK  209  A    between atoms: _505  and  _507
REMARK  210  A    between atoms: _507  and  _508
REMARK  211  A    between atoms: _507  and  _510
REMARK  212  A    between atoms: _510  and  _511
REMARK  213  A    between atoms: _517  and  _519
REMARK  214  A    between atoms: _519  and  _520
REMARK  215  A    between atoms: _519  and  _522
REMARK  216  A    between atoms: _522  and  _523
REMARK  217  A    between atoms: _526  and  _528
REMARK  218  A    between atoms: _528  and  _529
REMARK  219  A    between atoms: _531  and  _533
REMARK  220  A    between atoms: _533  and  _534
REMARK  221  A    between atoms: _533  and  _536
REMARK  222  A    between atoms: _536  and  _537
REMARK  223  A    between atoms: _540  and  _542
REMARK  224  A    between atoms: _542  and  _543
REMARK  225  A    between atoms: _542  and  _545
REMARK  226  A    between atoms: _545  and  _546
REMARK  227  A    between atoms: _551  and  _553
REMARK  228  A    between atoms: _553  and  _554
REMARK  229  A    between atoms: _553  and  _556
REMARK  230  A    between atoms: _556  and  _557
REMARK  231  A    between atoms: _560  and  _562
REMARK  232  A    between atoms: _562  and  _563
REMARK  233  A    between atoms: _562  and  _565
REMARK  234  A    between atoms: _565  and  _566
REMARK  235  A    between atoms: _572  and  _574
REMARK  236  A    between atoms: _574  and  _575
REMARK  237  A    between atoms: _577  and  _579
REMARK  238  A    between atoms: _579  and  _580
REMARK  239  A    between atoms: _579  and  _582
REMARK  240  A    between atoms: _582  and  _583
REMARK  241  A    between atoms: _586  and  _588
REMARK  242  A    between atoms: _588  and  _589
REMARK  243  A    between atoms: _588  and  _591
REMARK                            x       y       z     vdW  Elec       q    Type
REMARK                         _______ _______ _______ _____ _____    ______ ____
ROOT
ATOM      1  O   HOH     1      -8.450   2.163   0.936  0.00  0.00    +0.000 OA
ENDROOT
TORSDOF 0
REMARK  Name = ../refined-set-2016/3pww/3pww_pocket.pdb
REMARK  243 active torsions:
REMARK  status: ('A' for Active; 'I' for Inactive)
REMARK    1  A    between atoms: _1  and  _3
REMARK    2  A    between atoms: _3  and  _4
REMARK    3  A    between atoms: _3  and  _6
REMARK    4  A    between atoms: _6  and  _7
REMARK    5  A    between atoms: _10  and  _12
REMARK    6  A    between atoms: _12  and  _13
REMARK    7  A    between atoms: _12  and  _15
REMARK    8  A    between atoms: _15  and  _16
REMARK    9  A    between atoms: _19  and  _21
REMARK   10  A    between atoms: _21  and  _22
REMARK   11  A    between atoms: _21  and  _24
REMARK   12  A    between atoms: _24  and  _25
REMARK   13  A    between atoms: _28  and  _30
REMARK   14  A    between atoms: _30  and  _31
REMARK   15  A    between atoms: _30  and  _33
REMARK   16  A    between atoms: _33  and  _34
REMARK   17  A    between atoms: _37  and  _39
REMARK   18  A    between atoms: _39  and  _40
REMARK   19  A    between atoms: _39  and  _42
REMARK   20  A    between atoms: _42  and  _43
REMARK   21  A    between atoms: _46  and  _48
REMARK   22  A    between atoms: _48  and  _49
REMARK   23  A    between atoms: _52  and  _54
REMARK   24  A    between atoms: _54  and  _55
REMARK   25  A    between atoms: _54  and  _57
REMARK   26  A    between atoms: _57  and  _58
REMARK   27  A    between atoms: _63  and  _64
REMARK   28  A    between atoms: _66  and  _68
REMARK   29  A    between atoms: _68  and  _69
REMARK   30  A    between atoms: _68  and  _71
REMARK   31  A    between atoms: _71  and  _72
REMARK   32  A    between atoms: _75  and  _77
REMARK   33  A    between atoms: _77  and  _78
REMARK   34  A    between atoms: _77  and  _80
REMARK   35  A    between atoms: _80  and  _81
REMARK   36  A    between atoms: _87  and  _89
REMARK   37  A    between atoms: _89  and  _90
REMARK   38  A    between atoms: _89  and  _92
REMARK   39  A    between atoms: _92  and  _93
REMARK   40  A    between atoms: _96  and  _98
REMARK   41  A    between atoms: _98  and  _99
REMARK   42  A    between atoms: _98  and  _101
REMARK   43  A    between atoms: _101  and  _102
REMARK   44  A    between atoms: _105  and  _107
REMARK   45  A    between atoms: _107  and  _108
REMARK   46  A    between atoms: _110  and  _112
REMARK   47  A    between atoms: _112  and  _113
REMARK   48  A    between atoms: _112  and  _115
REMARK   49  A    between atoms: _115  and  _116
REMARK   50  A    between atoms: _118  and  _120
REMARK   51  A    between atoms: _120  and  _121
REMARK   52  A    between atoms: _120  and  _123
REMARK   53  A    between atoms: _123  and  _124
REMARK   54  A    between atoms: _126  and  _128
REMARK   55  A    between atoms: _128  and  _129
REMARK   56  A    between atoms: _128  and  _131
REMARK   57  A    between atoms: _131  and  _132
REMARK   58  A    between atoms: _135  and  _137
REMARK   59  A    between atoms: _137  and  _138
REMARK   60  A    between atoms: _137  and  _140
REMARK   61  A    between atoms: _140  and  _141
REMARK   62  A    between atoms: _151  and  _153
REMARK   63  A    between atoms: _153  and  _154
REMARK   64  A    between atoms: _153  and  _156
REMARK   65  A    between atoms: _156  and  _157
REMARK   66  A    between atoms: _159  and  _161
REMARK   67  A    between atoms: _161  and  _162
REMARK   68  A    between atoms: _161  and  _164
REMARK   69  A    between atoms: _164  and  _165
REMARK   70  A    between atoms: _168  and  _170
REMARK   71  A    between atoms: _170  and  _171
REMARK   72  A    between atoms: _170  and  _173
REMARK   73  A    between atoms: _173  and  _174
REMARK   74  A    between atoms: _176  and  _178
REMARK   75  A    between atoms: _178  and  _179
REMARK   76  A    between atoms: _178  and  _181
REMARK   77  A    between atoms: _181  and  _182
REMARK   78  A    between atoms: _187  and  _188
REMARK   79  A    between atoms: _190  and  _192
REMARK   80  A    between atoms: _192  and  _193
REMARK   81  A    between atoms: _195  and  _197
REMARK   82  A    between atoms: _197  and  _198
REMARK   83  A    between atoms: _197  and  _200
REMARK   84  A    between atoms: _200  and  _201
REMARK   85  A    between atoms: _204  and  _206
REMARK   86  A    between atoms: _206  and  _207
REMARK   87  A    between atoms: _209  and  _211
REMARK   88  A    between atoms: _211  and  _212
REMARK   89  A    between atoms: _211  and  _214
REMARK   90  A    between atoms: _214  and  _215
REMARK   91  A    between atoms: _217  and  _219
REMARK   92  A    between atoms: _219  and  _220
REMARK   93  A    between atoms: _219  and  _222
REMARK   94  A    between atoms: _222  and  _223
REMARK   95  A    between atoms: _225  and  _227
REMARK   96  A    between atoms: _227  and  _228
REMARK   97  A    between atoms: _227  and  _230
REMARK   98  A    between atoms: _230  and  _231
REMARK   99  A    between atoms: _233  and  _235
REMARK  100  A    between atoms: _235  and  _236
REMARK  101  A    between atoms: _235  and  _238
REMARK  102  A    between atoms: _238  and  _239
REMARK  103  A    between atoms: _241  and  _243
REMARK  104  A    between atoms: _243  and  _244
REMARK  105  A    between atoms: _243  and  _246
REMARK  106  A    between atoms: _246  and  _247
REMARK  107  A    between atoms: _249  and  _251
REMARK  108  A    between atoms: _251  and  _252
REMARK  109  A    between atoms: _251  and  _254
REMARK  110  A    between atoms: _254  and  _255
REMARK  111  A    between atoms: _261  and  _263
REMARK  112  A    between atoms: _263  and  _264
REMARK  113  A    between atoms: _263  and  _266
REMARK  114  A    between atoms: _266  and  _267
REMARK  115  A    between atoms: _270  and  _272
REMARK  116  A    between atoms: _272  and  _273
REMARK  117  A    between atoms: _272  and  _275
REMARK  118  A    between atoms: _275  and  _276
REMARK  119  A    between atoms: _279  and  _281
REMARK  120  A    between atoms: _281  and  _282
REMARK  121  A    between atoms: _281  and  _284
REMARK  122  A    between atoms: _284  and  _285
REMARK  123  A    between atoms: _288  and  _290
REMARK  124  A    between atoms: _290  and  _291
REMARK  125  A    between atoms: _293  and  _295
REMARK  126  A    between atoms: _295  and  _296
REMARK  127  A    between atoms: _295  and  _298
REMARK  128  A    between atoms: _298  and  _299
REMARK  129  A    between atoms: _302  and  _304
REMARK  130  A    between atoms: _304  and  _305
REMARK  131  A    between atoms: _304  and  _307
REMARK  132  A    between atoms: _307  and  _308
REMARK  133  A    between atoms: _311  and  _313
REMARK  134  A    between atoms: _313  and  _314
REMARK  135  A    between atoms: _316  and  _318
REMARK  136  A    between atoms: _318  and  _319
REMARK  137  A    between atoms: _318  and  _321
REMARK  138  A    between atoms: _321  and  _322
REMARK  139  A    between atoms: _325  and  _327
REMARK  140  A    between atoms: _327  and  _328
REMARK  141  A    between atoms: _331  and  _333
REMARK  142  A    between atoms: _333  and  _334
REMARK  143  A    between atoms: _333  and  _336
REMARK  144  A    between atoms: _336  and  _337
REMARK  145  A    between atoms: _343  and  _345
REMARK  146  A    between atoms: _345  and  _346
REMARK  147  A    between atoms: _345  and  _348
REMARK  148  A    between atoms: _348  and  _349
REMARK  149  A    between atoms: _352  and  _354
REMARK  150  A    between atoms: _354  and  _355
REMARK  151  A    between atoms: _354  and  _357
REMARK  152  A    between atoms: _357  and  _358
REMARK  153  A    between atoms: _363  and  _365
REMARK  154  A    between atoms: _365  and  _366
REMARK  155  A    between atoms: _365  and  _368
REMARK  156  A    between atoms: _368  and  _369
REMARK  157  A    between atoms: _372  and  _374
REMARK  158  A    between atoms: _374  and  _375
REMARK  159  A    between atoms: _374  and  _377
REMARK  160  A    between atoms: _377  and  _378
REMARK  161  A    between atoms: _378  and  _379
REMARK  162  A    between atoms: _384  and  _386
REMARK  163  A    between atoms: _386  and  _387
REMARK  164  A    between atoms: _389  and  _391
REMARK  165  A    between atoms: _391  and  _392
REMARK  166  A    between atoms: _391  and  _394
REMARK  167  A    between atoms: _394  and  _395
REMARK  168  A    between atoms: _401  and  _403
REMARK  169  A    between atoms: _403  and  _404
REMARK  170  A    between atoms: _403  and  _406
REMARK  171  A    between atoms: _406  and  _407
REMARK  172  A    between atoms: _417  and  _419
REMARK  173  A    between atoms: _419  and  _420
REMARK  174  A    between atoms: _419  and  _422
REMARK  175  A    between atoms: _422  and  _423
REMARK  176  A    between atoms: _426  and  _428
REMARK  177  A    between atoms: _428  and  _429
REMARK  178  A    between atoms: _432  and  _434
REMARK  179  A    between atoms: _434  and  _435
REMARK  180  A    between atoms: _434  and  _437
REMARK  181  A    between atoms: _437  and  _438
REMARK  182  A    between atoms: _441  and  _443
REMARK  183  A    between atoms: _443  and  _444
REMARK  184  A    between atoms: _443  and  _446
REMARK  185  A    between atoms: _446  and  _447
REMARK  186  A    between atoms: _450  and  _452
REMARK  187  A    between atoms: _452  and  _453
REMARK  188  A    between atoms: _455  and  _457
REMARK  189  A    between atoms: _457  and  _458
REMARK  190  A    between atoms: _457  and  _460
REMARK  191  A    between atoms: _460  and  _461
REMARK  192  A    between atoms: _464  and  _466
REMARK  193  A    between atoms: _466  and  _467
REMARK  194  A    between atoms: _466  and  _469
REMARK  195  A    between atoms: _469  and  _470
REMARK  196  A    between atoms: _473  and  _475
REMARK  197  A    between atoms: _475  and  _476
REMARK  198  A    between atoms: _475  and  _478
REMARK  199  A    between atoms: _478  and  _479
REMARK  200  A    between atoms: _482  and  _484
REMARK  201  A    between atoms: _484  and  _485
REMARK  202  A    between atoms: _484  and  _487
REMARK  203  A    between atoms: _487  and  _488
REMARK  204  A    between atoms: _491  and  _493
REMARK  205  A    between atoms: _493  and  _494
REMARK  206  A    between atoms: _493  and  _496
REMARK  207  A    between atoms: _496  and  _497
REMARK  208  A    between atoms: _502  and  _503
REMARK  209  A    between atoms: _505  and  _507
REMARK  210  A    between atoms: _507  and  _508
REMARK  211  A    between atoms: _507  and  _510
REMARK  212  A    between atoms: _510  and  _511
REMARK  213  A    between atoms: _517  and  _519
REMARK  214  A    between atoms: _519  and  _520
REMARK  215  A    between atoms: _519  and  _522
REMARK  216  A    between atoms: _522  and  _523
REMARK  217  A    between atoms: _526  and  _528
REMARK  218  A    between atoms: _528  and  _529
REMARK  219  A    between atoms: _531  and  _533
REMARK  220  A    between atoms: _533  and  _534
REMARK  221  A    between atoms: _533  and  _536
REMARK  222  A    between atoms: _536  and  _537
REMARK  223  A    between atoms: _540  and  _542
REMARK  224  A    between atoms: _542  and  _543
REMARK  225  A    between atoms: _542  and  _545
REMARK  226  A    between atoms: _545  and  _546
REMARK  227  A    between atoms: _551  and  _553
REMARK  228  A    between atoms: _553  and  _554
REMARK  229  A    between atoms: _553  and  _556
REMARK  230  A    between atoms: _556  and  _557
REMARK  231  A    between atoms: _560  and  _562
REMARK  232  A    between atoms: _562  and  _563
REMARK  233  A    between atoms: _562  and  _565
REMARK  234  A    between atoms: _565  and  _566
REMARK  235  A    between atoms: _572  and  _574
REMARK  236  A    between atoms: _574  and  _575
REMARK  237  A    between atoms: _577  and  _579
REMARK  238  A    between atoms: _579  and  _580
REMARK  239  A    between atoms: _579  and  _582
REMARK  240  A    between atoms: _582  and  _583
REMARK  241  A    between atoms: _586  and  _588
REMARK  242  A    between atoms: _588  and  _589
REMARK  243  A    between atoms: _588  and  _591
REMARK                            x       y       z     vdW  Elec       q    Type
REMARK                         _______ _______ _______ _____ _____    ______ ____
ROOT
ATOM      1  O   HOH     1      -7.102  -0.228  12.567  0.00  0.00    +0.000 OA
ENDROOT
TORSDOF 0
REMARK  Name = ../refined-set-2016/3pww/3pww_pocket.pdb
REMARK  243 active torsions:
REMARK  status: ('A' for Active; 'I' for Inactive)
REMARK    1  A    between atoms: _1  and  _3
REMARK    2  A    between atoms: _3  and  _4
REMARK    3  A    between atoms: _3  and  _6
REMARK    4  A    between atoms: _6  and  _7
REMARK    5  A    between atoms: _10  and  _12
REMARK    6  A    between atoms: _12  and  _13
REMARK    7  A    between atoms: _12  and  _15
REMARK    8  A    between atoms: _15  and  _16
REMARK    9  A    between atoms: _19  and  _21
REMARK   10  A    between atoms: _21  and  _22
REMARK   11  A    between atoms: _21  and  _24
REMARK   12  A    between atoms: _24  and  _25
REMARK   13  A    between atoms: _28  and  _30
REMARK   14  A    between atoms: _30  and  _31
REMARK   15  A    between atoms: _30  and  _33
REMARK   16  A    between atoms: _33  and  _34
REMARK   17  A    between atoms: _37  and  _39
REMARK   18  A    between atoms: _39  and  _40
REMARK   19  A    between atoms: _39  and  _42
REMARK   20  A    between atoms: _42  and  _43
REMARK   21  A    between atoms: _46  and  _48
REMARK   22  A    between atoms: _48  and  _49
REMARK   23  A    between atoms: _52  and  _54
REMARK   24  A    between atoms: _54  and  _55
REMARK   25  A    between atoms: _54  and  _57
REMARK   26  A    between atoms: _57  and  _58
REMARK   27  A    between atoms: _63  and  _64
REMARK   28  A    between atoms: _66  and  _68
REMARK   29  A    between atoms: _68  and  _69
REMARK   30  A    between atoms: _68  and  _71
REMARK   31  A    between atoms: _71  and  _72
REMARK   32  A    between atoms: _75  and  _77
REMARK   33  A    between atoms: _77  and  _78
REMARK   34  A    between atoms: _77  and  _80
REMARK   35  A    between atoms: _80  and  _81
REMARK   36  A    between atoms: _87  and  _89
REMARK   37  A    between atoms: _89  and  _90
REMARK   38  A    between atoms: _89  and  _92
REMARK   39  A    between atoms: _92  and  _93
REMARK   40  A    between atoms: _96  and  _98
REMARK   41  A    between atoms: _98  and  _99
REMARK   42  A    between atoms: _98  and  _101
REMARK   43  A    between atoms: _101  and  _102
REMARK   44  A    between atoms: _105  and  _107
REMARK   45  A    between atoms: _107  and  _108
REMARK   46  A    between atoms: _110  and  _112
REMARK   47  A    between atoms: _112  and  _113
REMARK   48  A    between atoms: _112  and  _115
REMARK   49  A    between atoms: _115  and  _116
REMARK   50  A    between atoms: _118  and  _120
REMARK   51  A    between atoms: _120  and  _121
REMARK   52  A    between atoms: _120  and  _123
REMARK   53  A    between atoms: _123  and  _124
REMARK   54  A    between atoms: _126  and  _128
REMARK   55  A    between atoms: _128  and  _129
REMARK   56  A    between atoms: _128  and  _131
REMARK   57  A    between atoms: _131  and  _132
REMARK   58  A    between atoms: _135  and  _137
REMARK   59  A    between atoms: _137  and  _138
REMARK   60  A    between atoms: _137  and  _140
REMARK   61  A    between atoms: _140  and  _141
REMARK   62  A    between atoms: _151  and  _153
REMARK   63  A    between atoms: _153  and  _154
REMARK   64  A    between atoms: _153  and  _156
REMARK   65  A    between atoms: _156  and  _157
REMARK   66  A    between atoms: _159  and  _161
REMARK   67  A    between atoms: _161  and  _162
REMARK   68  A    between atoms: _161  and  _164
REMARK   69  A    between atoms: _164  and  _165
REMARK   70  A    between atoms: _168  and  _170
REMARK   71  A    between atoms: _170  and  _171
REMARK   72  A    between atoms: _170  and  _173
REMARK   73  A    between atoms: _173  and  _174
REMARK   74  A    between atoms: _176  and  _178
REMARK   75  A    between atoms: _178  and  _179
REMARK   76  A    between atoms: _178  and  _181
REMARK   77  A    between atoms: _181  and  _182
REMARK   78  A    between atoms: _187  and  _188
REMARK   79  A    between atoms: _190  and  _192
REMARK   80  A    between atoms: _192  and  _193
REMARK   81  A    between atoms: _195  and  _197
REMARK   82  A    between atoms: _197  and  _198
REMARK   83  A    between atoms: _197  and  _200
REMARK   84  A    between atoms: _200  and  _201
REMARK   85  A    between atoms: _204  and  _206
REMARK   86  A    between atoms: _206  and  _207
REMARK   87  A    between atoms: _209  and  _211
REMARK   88  A    between atoms: _211  and  _212
REMARK   89  A    between atoms: _211  and  _214
REMARK   90  A    between atoms: _214  and  _215
REMARK   91  A    between atoms: _217  and  _219
REMARK   92  A    between atoms: _219  and  _220
REMARK   93  A    between atoms: _219  and  _222
REMARK   94  A    between atoms: _222  and  _223
REMARK   95  A    between atoms: _225  and  _227
REMARK   96  A    between atoms: _227  and  _228
REMARK   97  A    between atoms: _227  and  _230
REMARK   98  A    between atoms: _230  and  _231
REMARK   99  A    between atoms: _233  and  _235
REMARK  100  A    between atoms: _235  and  _236
REMARK  101  A    between atoms: _235  and  _238
REMARK  102  A    between atoms: _238  and  _239
REMARK  103  A    between atoms: _241  and  _243
REMARK  104  A    between atoms: _243  and  _244
REMARK  105  A    between atoms: _243  and  _246
REMARK  106  A    between atoms: _246  and  _247
REMARK  107  A    between atoms: _249  and  _251
REMARK  108  A    between atoms: _251  and  _252
REMARK  109  A    between atoms: _251  and  _254
REMARK  110  A    between atoms: _254  and  _255
REMARK  111  A    between atoms: _261  and  _263
REMARK  112  A    between atoms: _263  and  _264
REMARK  113  A    between atoms: _263  and  _266
REMARK  114  A    between atoms: _266  and  _267
REMARK  115  A    between atoms: _270  and  _272
REMARK  116  A    between atoms: _272  and  _273
REMARK  117  A    between atoms: _272  and  _275
REMARK  118  A    between atoms: _275  and  _276
REMARK  119  A    between atoms: _279  and  _281
REMARK  120  A    between atoms: _281  and  _282
REMARK  121  A    between atoms: _281  and  _284
REMARK  122  A    between atoms: _284  and  _285
REMARK  123  A    between atoms: _288  and  _290
REMARK  124  A    between atoms: _290  and  _291
REMARK  125  A    between atoms: _293  and  _295
REMARK  126  A    between atoms: _295  and  _296
REMARK  127  A    between atoms: _295  and  _298
REMARK  128  A    between atoms: _298  and  _299
REMARK  129  A    between atoms: _302  and  _304
REMARK  130  A    between atoms: _304  and  _305
REMARK  131  A    between atoms: _304  and  _307
REMARK  132  A    between atoms: _307  and  _308
REMARK  133  A    between atoms: _311  and  _313
REMARK  134  A    between atoms: _313  and  _314
REMARK  135  A    between atoms: _316  and  _318
REMARK  136  A    between atoms: _318  and  _319
REMARK  137  A    between atoms: _318  and  _321
REMARK  138  A    between atoms: _321  and  _322
REMARK  139  A    between atoms: _325  and  _327
REMARK  140  A    between atoms: _327  and  _328
REMARK  141  A    between atoms: _331  and  _333
REMARK  142  A    between atoms: _333  and  _334
REMARK  143  A    between atoms: _333  and  _336
REMARK  144  A    between atoms: _336  and  _337
REMARK  145  A    between atoms: _343  and  _345
REMARK  146  A    between atoms: _345  and  _346
REMARK  147  A    between atoms: _345  and  _348
REMARK  148  A    between atoms: _348  and  _349
REMARK  149  A    between atoms: _352  and  _354
REMARK  150  A    between atoms: _354  and  _355
REMARK  151  A    between atoms: _354  and  _357
REMARK  152  A    between atoms: _357  and  _358
REMARK  153  A    between atoms: _363  and  _365
REMARK  154  A    between atoms: _365  and  _366
REMARK  155  A    between atoms: _365  and  _368
REMARK  156  A    between atoms: _368  and  _369
REMARK  157  A    between atoms: _372  and  _374
REMARK  158  A    between atoms: _374  and  _375
REMARK  159  A    between atoms: _374  and  _377
REMARK  160  A    between atoms: _377  and  _378
REMARK  161  A    between atoms: _378  and  _379
REMARK  162  A    between atoms: _384  and  _386
REMARK  163  A    between atoms: _386  and  _387
REMARK  164  A    between atoms: _389  and  _391
REMARK  165  A    between atoms: _391  and  _392
REMARK  166  A    between atoms: _391  and  _394
REMARK  167  A    between atoms: _394  and  _395
REMARK  168  A    between atoms: _401  and  _403
REMARK  169  A    between atoms: _403  and  _404
REMARK  170  A    between atoms: _403  and  _406
REMARK  171  A    between atoms: _406  and  _407
REMARK  172  A    between atoms: _417  and  _419
REMARK  173  A    between atoms: _419  and  _420
REMARK  174  A    between atoms: _419  and  _422
REMARK  175  A    between atoms: _422  and  _423
REMARK  176  A    between atoms: _426  and  _428
REMARK  177  A    between atoms: _428  and  _429
REMARK  178  A    between atoms: _432  and  _434
REMARK  179  A    between atoms: _434  and  _435
REMARK  180  A    between atoms: _434  and  _437
REMARK  181  A    between atoms: _437  and  _438
REMARK  182  A    between atoms: _441  and  _443
REMARK  183  A    between atoms: _443  and  _444
REMARK  184  A    between atoms: _443  and  _446
REMARK  185  A    between atoms: _446  and  _447
REMARK  186  A    between atoms: _450  and  _452
REMARK  187  A    between atoms: _452  and  _453
REMARK  188  A    between atoms: _455  and  _457
REMARK  189  A    between atoms: _457  and  _458
REMARK  190  A    between atoms: _457  and  _460
REMARK  191  A    between atoms: _460  and  _461
REMARK  192  A    between atoms: _464  and  _466
REMARK  193  A    between atoms: _466  and  _467
REMARK  194  A    between atoms: _466  and  _469
REMARK  195  A    between atoms: _469  and  _470
REMARK  196  A    between atoms: _473  and  _475
REMARK  197  A    between atoms: _475  and  _476
REMARK  198  A    between atoms: _475  and  _478
REMARK  199  A    between atoms: _478  and  _479
REMARK  200  A    between atoms: _482  and  _484
REMARK  201  A    between atoms: _484  and  _485
REMARK  202  A    between atoms: _484  and  _487
REMARK  203  A    between atoms: _487  and  _488
REMARK  204  A    between atoms: _491  and  _493
REMARK  205  A    between atoms: _493  and  _494
REMARK  206  A    between atoms: _493  and  _496
REMARK  207  A    between atoms: _496  and  _497
REMARK  208  A    between atoms: _502  and  _503
REMARK  209  A    between atoms: _505  and  _507
REMARK  210  A    between atoms: _507  and  _508
REMARK  211  A    between atoms: _507  and  _510
REMARK  212  A    between atoms: _510  and  _511
REMARK  213  A    between atoms: _517  and  _519
REMARK  214  A    between atoms: _519  and  _520
REMARK  215  A    between atoms: _519  and  _522
REMARK  216  A    between atoms: _522  and  _523
REMARK  217  A    between atoms: _526  and  _528
REMARK  218  A    between atoms: _528  and  _529
REMARK  219  A    between atoms: _531  and  _533
REMARK  220  A    between atoms: _533  and  _534
REMARK  221  A    between atoms: _533  and  _536
REMARK  222  A    between atoms: _536  and  _537
REMARK  223  A    between atoms: _540  and  _542
REMARK  224  A    between atoms: _542  and  _543
REMARK  225  A    between atoms: _542  and  _545
REMARK  226  A    between atoms: _545  and  _546
REMARK  227  A    between atoms: _551  and  _553
REMARK  228  A    between atoms: _553  and  _554
REMARK  229  A    between atoms: _553  and  _556
REMARK  230  A    between atoms: _556  and  _557
REMARK  231  A    between atoms: _560  and  _562
REMARK  232  A    between atoms: _562  and  _563
REMARK  233  A    between atoms: _562  and  _565
REMARK  234  A    between atoms: _565  and  _566
REMARK  235  A    between atoms: _572  and  _574
REMARK  236  A    between atoms: _574  and  _575
REMARK  237  A    between atoms: _577  and  _579
REMARK  238  A    between atoms: _579  and  _580
REMARK  239  A    between atoms: _579  and  _582
REMARK  240  A    between atoms: _582  and  _583
REMARK  241  A    between atoms: _586  and  _588
REMARK  242  A    between atoms: _588  and  _589
REMARK  243  A    between atoms: _588  and  _591
REMARK                            x       y       z     vdW  Elec       q    Type
REMARK                         _______ _______ _______ _____ _____    ______ ____
ROOT
ATOM      1  O   HOH     1       1.222  -2.813   5.606  0.00  0.00    +0.000 OA
ENDROOT
TORSDOF 0
REMARK  Name = ../refined-set-2016/3pww/3pww_pocket.pdb
REMARK  243 active torsions:
REMARK  status: ('A' for Active; 'I' for Inactive)
REMARK    1  A    between atoms: _1  and  _3
REMARK    2  A    between atoms: _3  and  _4
REMARK    3  A    between atoms: _3  and  _6
REMARK    4  A    between atoms: _6  and  _7
REMARK    5  A    between atoms: _10  and  _12
REMARK    6  A    between atoms: _12  and  _13
REMARK    7  A    between atoms: _12  and  _15
REMARK    8  A    between atoms: _15  and  _16
REMARK    9  A    between atoms: _19  and  _21
REMARK   10  A    between atoms: _21  and  _22
REMARK   11  A    between atoms: _21  and  _24
REMARK   12  A    between atoms: _24  and  _25
REMARK   13  A    between atoms: _28  and  _30
REMARK   14  A    between atoms: _30  and  _31
REMARK   15  A    between atoms: _30  and  _33
REMARK   16  A    between atoms: _33  and  _34
REMARK   17  A    between atoms: _37  and  _39
REMARK   18  A    between atoms: _39  and  _40
REMARK   19  A    between atoms: _39  and  _42
REMARK   20  A    between atoms: _42  and  _43
REMARK   21  A    between atoms: _46  and  _48
REMARK   22  A    between atoms: _48  and  _49
REMARK   23  A    between atoms: _52  and  _54
REMARK   24  A    between atoms: _54  and  _55
REMARK   25  A    between atoms: _54  and  _57
REMARK   26  A    between atoms: _57  and  _58
REMARK   27  A    between atoms: _63  and  _64
REMARK   28  A    between atoms: _66  and  _68
REMARK   29  A    between atoms: _68  and  _69
REMARK   30  A    between atoms: _68  and  _71
REMARK   31  A    between atoms: _71  and  _72
REMARK   32  A    between atoms: _75  and  _77
REMARK   33  A    between atoms: _77  and  _78
REMARK   34  A    between atoms: _77  and  _80
REMARK   35  A    between atoms: _80  and  _81
REMARK   36  A    between atoms: _87  and  _89
REMARK   37  A    between atoms: _89  and  _90
REMARK   38  A    between atoms: _89  and  _92
REMARK   39  A    between atoms: _92  and  _93
REMARK   40  A    between atoms: _96  and  _98
REMARK   41  A    between atoms: _98  and  _99
REMARK   42  A    between atoms: _98  and  _101
REMARK   43  A    between atoms: _101  and  _102
REMARK   44  A    between atoms: _105  and  _107
REMARK   45  A    between atoms: _107  and  _108
REMARK   46  A    between atoms: _110  and  _112
REMARK   47  A    between atoms: _112  and  _113
REMARK   48  A    between atoms: _112  and  _115
REMARK   49  A    between atoms: _115  and  _116
REMARK   50  A    between atoms: _118  and  _120
REMARK   51  A    between atoms: _120  and  _121
REMARK   52  A    between atoms: _120  and  _123
REMARK   53  A    between atoms: _123  and  _124
REMARK   54  A    between atoms: _126  and  _128
REMARK   55  A    between atoms: _128  and  _129
REMARK   56  A    between atoms: _128  and  _131
REMARK   57  A    between atoms: _131  and  _132
REMARK   58  A    between atoms: _135  and  _137
REMARK   59  A    between atoms: _137  and  _138
REMARK   60  A    between atoms: _137  and  _140
REMARK   61  A    between atoms: _140  and  _141
REMARK   62  A    between atoms: _151  and  _153
REMARK   63  A    between atoms: _153  and  _154
REMARK   64  A    between atoms: _153  and  _156
REMARK   65  A    between atoms: _156  and  _157
REMARK   66  A    between atoms: _159  and  _161
REMARK   67  A    between atoms: _161  and  _162
REMARK   68  A    between atoms: _161  and  _164
REMARK   69  A    between atoms: _164  and  _165
REMARK   70  A    between atoms: _168  and  _170
REMARK   71  A    between atoms: _170  and  _171
REMARK   72  A    between atoms: _170  and  _173
REMARK   73  A    between atoms: _173  and  _174
REMARK   74  A    between atoms: _176  and  _178
REMARK   75  A    between atoms: _178  and  _179
REMARK   76  A    between atoms: _178  and  _181
REMARK   77  A    between atoms: _181  and  _182
REMARK   78  A    between atoms: _187  and  _188
REMARK   79  A    between atoms: _190  and  _192
REMARK   80  A    between atoms: _192  and  _193
REMARK   81  A    between atoms: _195  and  _197
REMARK   82  A    between atoms: _197  and  _198
REMARK   83  A    between atoms: _197  and  _200
REMARK   84  A    between atoms: _200  and  _201
REMARK   85  A    between atoms: _204  and  _206
REMARK   86  A    between atoms: _206  and  _207
REMARK   87  A    between atoms: _209  and  _211
REMARK   88  A    between atoms: _211  and  _212
REMARK   89  A    between atoms: _211  and  _214
REMARK   90  A    between atoms: _214  and  _215
REMARK   91  A    between atoms: _217  and  _219
REMARK   92  A    between atoms: _219  and  _220
REMARK   93  A    between atoms: _219  and  _222
REMARK   94  A    between atoms: _222  and  _223
REMARK   95  A    between atoms: _225  and  _227
REMARK   96  A    between atoms: _227  and  _228
REMARK   97  A    between atoms: _227  and  _230
REMARK   98  A    between atoms: _230  and  _231
REMARK   99  A    between atoms: _233  and  _235
REMARK  100  A    between atoms: _235  and  _236
REMARK  101  A    between atoms: _235  and  _238
REMARK  102  A    between atoms: _238  and  _239
REMARK  103  A    between atoms: _241  and  _243
REMARK  104  A    between atoms: _243  and  _244
REMARK  105  A    between atoms: _243  and  _246
REMARK  106  A    between atoms: _246  and  _247
REMARK  107  A    between atoms: _249  and  _251
REMARK  108  A    between atoms: _251  and  _252
REMARK  109  A    between atoms: _251  and  _254
REMARK  110  A    between atoms: _254  and  _255
REMARK  111  A    between atoms: _261  and  _263
REMARK  112  A    between atoms: _263  and  _264
REMARK  113  A    between atoms: _263  and  _266
REMARK  114  A    between atoms: _266  and  _267
REMARK  115  A    between atoms: _270  and  _272
REMARK  116  A    between atoms: _272  and  _273
REMARK  117  A    between atoms: _272  and  _275
REMARK  118  A    between atoms: _275  and  _276
REMARK  119  A    between atoms: _279  and  _281
REMARK  120  A    between atoms: _281  and  _282
REMARK  121  A    between atoms: _281  and  _284
REMARK  122  A    between atoms: _284  and  _285
REMARK  123  A    between atoms: _288  and  _290
REMARK  124  A    between atoms: _290  and  _291
REMARK  125  A    between atoms: _293  and  _295
REMARK  126  A    between atoms: _295  and  _296
REMARK  127  A    between atoms: _295  and  _298
REMARK  128  A    between atoms: _298  and  _299
REMARK  129  A    between atoms: _302  and  _304
REMARK  130  A    between atoms: _304  and  _305
REMARK  131  A    between atoms: _304  and  _307
REMARK  132  A    between atoms: _307  and  _308
REMARK  133  A    between atoms: _311  and  _313
REMARK  134  A    between atoms: _313  and  _314
REMARK  135  A    between atoms: _316  and  _318
REMARK  136  A    between atoms: _318  and  _319
REMARK  137  A    between atoms: _318  and  _321
REMARK  138  A    between atoms: _321  and  _322
REMARK  139  A    between atoms: _325  and  _327
REMARK  140  A    between atoms: _327  and  _328
REMARK  141  A    between atoms: _331  and  _333
REMARK  142  A    between atoms: _333  and  _334
REMARK  143  A    between atoms: _333  and  _336
REMARK  144  A    between atoms: _336  and  _337
REMARK  145  A    between atoms: _343  and  _345
REMARK  146  A    between atoms: _345  and  _346
REMARK  147  A    between atoms: _345  and  _348
REMARK  148  A    between atoms: _348  and  _349
REMARK  149  A    between atoms: _352  and  _354
REMARK  150  A    between atoms: _354  and  _355
REMARK  151  A    between atoms: _354  and  _357
REMARK  152  A    between atoms: _357  and  _358
REMARK  153  A    between atoms: _363  and  _365
REMARK  154  A    between atoms: _365  and  _366
REMARK  155  A    between atoms: _365  and  _368
REMARK  156  A    between atoms: _368  and  _369
REMARK  157  A    between atoms: _372  and  _374
REMARK  158  A    between atoms: _374  and  _375
REMARK  159  A    between atoms: _374  and  _377
REMARK  160  A    between atoms: _377  and  _378
REMARK  161  A    between atoms: _378  and  _379
REMARK  162  A    between atoms: _384  and  _386
REMARK  163  A    between atoms: _386  and  _387
REMARK  164  A    between atoms: _389  and  _391
REMARK  165  A    between atoms: _391  and  _392
REMARK  166  A    between atoms: _391  and  _394
REMARK  167  A    between atoms: _394  and  _395
REMARK  168  A    between atoms: _401  and  _403
REMARK  169  A    between atoms: _403  and  _404
REMARK  170  A    between atoms: _403  and  _406
REMARK  171  A    between atoms: _406  and  _407
REMARK  172  A    between atoms: _417  and  _419
REMARK  173  A    between atoms: _419  and  _420
REMARK  174  A    between atoms: _419  and  _422
REMARK  175  A    between atoms: _422  and  _423
REMARK  176  A    between atoms: _426  and  _428
REMARK  177  A    between atoms: _428  and  _429
REMARK  178  A    between atoms: _432  and  _434
REMARK  179  A    between atoms: _434  and  _435
REMARK  180  A    between atoms: _434  and  _437
REMARK  181  A    between atoms: _437  and  _438
REMARK  182  A    between atoms: _441  and  _443
REMARK  183  A    between atoms: _443  and  _444
REMARK  184  A    between atoms: _443  and  _446
REMARK  185  A    between atoms: _446  and  _447
REMARK  186  A    between atoms: _450  and  _452
REMARK  187  A    between atoms: _452  and  _453
REMARK  188  A    between atoms: _455  and  _457
REMARK  189  A    between atoms: _457  and  _458
REMARK  190  A    between atoms: _457  and  _460
REMARK  191  A    between atoms: _460  and  _461
REMARK  192  A    between atoms: _464  and  _466
REMARK  193  A    between atoms: _466  and  _467
REMARK  194  A    between atoms: _466  and  _469
REMARK  195  A    between atoms: _469  and  _470
REMARK  196  A    between atoms: _473  and  _475
REMARK  197  A    between atoms: _475  and  _476
REMARK  198  A    between atoms: _475  and  _478
REMARK  199  A    between atoms: _478  and  _479
REMARK  200  A    between atoms: _482  and  _484
REMARK  201  A    between atoms: _484  and  _485
REMARK  202  A    between atoms: _484  and  _487
REMARK  203  A    between atoms: _487  and  _488
REMARK  204  A    between atoms: _491  and  _493
REMARK  205  A    between atoms: _493  and  _494
REMARK  206  A    between atoms: _493  and  _496
REMARK  207  A    between atoms: _496  and  _497
REMARK  208  A    between atoms: _502  and  _503
REMARK  209  A    between atoms: _505  and  _507
REMARK  210  A    between atoms: _507  and  _508
REMARK  211  A    between atoms: _507  and  _510
REMARK  212  A    between atoms: _510  and  _511
REMARK  213  A    between atoms: _517  and  _519
REMARK  214  A    between atoms: _519  and  _520
REMARK  215  A    between atoms: _519  and  _522
REMARK  216  A    between atoms: _522  and  _523
REMARK  217  A    between atoms: _526  and  _528
REMARK  218  A    between atoms: _528  and  _529
REMARK  219  A    between atoms: _531  and  _533
REMARK  220  A    between atoms: _533  and  _534
REMARK  221  A    between atoms: _533  and  _536
REMARK  222  A    between atoms: _536  and  _537
REMARK  223  A    between atoms: _540  and  _542
REMARK  224  A    between atoms: _542  and  _543
REMARK  225  A    between atoms: _542  and  _545
REMARK  226  A    between atoms: _545  and  _546
REMARK  227  A    between atoms: _551  and  _553
REMARK  228  A    between atoms: _553  and  _554
REMARK  229  A    between atoms: _553  and  _556
REMARK  230  A    between atoms: _556  and  _557
REMARK  231  A    between atoms: _560  and  _562
REMARK  232  A    between atoms: _562  and  _563
REMARK  233  A    between atoms: _562  and  _565
REMARK  234  A    between atoms: _565  and  _566
REMARK  235  A    between atoms: _572  and  _574
REMARK  236  A    between atoms: _574  and  _575
REMARK  237  A    between atoms: _577  and  _579
REMARK  238  A    between atoms: _579  and  _580
REMARK  239  A    between atoms: _579  and  _582
REMARK  240  A    between atoms: _582  and  _583
REMARK  241  A    between atoms: _586  and  _588
REMARK  242  A    between atoms: _588  and  _589
REMARK  243  A    between atoms: _588  and  _591
REMARK                            x       y       z     vdW  Elec       q    Type
REMARK                         _______ _______ _______ _____ _____    ______ ____
ROOT
ATOM      1  O   HOH     1      -7.183  -2.020   9.766  0.00  0.00    +0.000 OA
ENDROOT
TORSDOF 0
REMARK  Name = ../refined-set-2016/3pww/3pww_pocket.pdb
REMARK  243 active torsions:
REMARK  status: ('A' for Active; 'I' for Inactive)
REMARK    1  A    between atoms: _1  and  _3
REMARK    2  A    between atoms: _3  and  _4
REMARK    3  A    between atoms: _3  and  _6
REMARK    4  A    between atoms: _6  and  _7
REMARK    5  A    between atoms: _10  and  _12
REMARK    6  A    between atoms: _12  and  _13
REMARK    7  A    between atoms: _12  and  _15
REMARK    8  A    between atoms: _15  and  _16
REMARK    9  A    between atoms: _19  and  _21
REMARK   10  A    between atoms: _21  and  _22
REMARK   11  A    between atoms: _21  and  _24
REMARK   12  A    between atoms: _24  and  _25
REMARK   13  A    between atoms: _28  and  _30
REMARK   14  A    between atoms: _30  and  _31
REMARK   15  A    between atoms: _30  and  _33
REMARK   16  A    between atoms: _33  and  _34
REMARK   17  A    between atoms: _37  and  _39
REMARK   18  A    between atoms: _39  and  _40
REMARK   19  A    between atoms: _39  and  _42
REMARK   20  A    between atoms: _42  and  _43
REMARK   21  A    between atoms: _46  and  _48
REMARK   22  A    between atoms: _48  and  _49
REMARK   23  A    between atoms: _52  and  _54
REMARK   24  A    between atoms: _54  and  _55
REMARK   25  A    between atoms: _54  and  _57
REMARK   26  A    between atoms: _57  and  _58
REMARK   27  A    between atoms: _63  and  _64
REMARK   28  A    between atoms: _66  and  _68
REMARK   29  A    between atoms: _68  and  _69
REMARK   30  A    between atoms: _68  and  _71
REMARK   31  A    between atoms: _71  and  _72
REMARK   32  A    between atoms: _75  and  _77
REMARK   33  A    between atoms: _77  and  _78
REMARK   34  A    between atoms: _77  and  _80
REMARK   35  A    between atoms: _80  and  _81
REMARK   36  A    between atoms: _87  and  _89
REMARK   37  A    between atoms: _89  and  _90
REMARK   38  A    between atoms: _89  and  _92
REMARK   39  A    between atoms: _92  and  _93
REMARK   40  A    between atoms: _96  and  _98
REMARK   41  A    between atoms: _98  and  _99
REMARK   42  A    between atoms: _98  and  _101
REMARK   43  A    between atoms: _101  and  _102
REMARK   44  A    between atoms: _105  and  _107
REMARK   45  A    between atoms: _107  and  _108
REMARK   46  A    between atoms: _110  and  _112
REMARK   47  A    between atoms: _112  and  _113
REMARK   48  A    between atoms: _112  and  _115
REMARK   49  A    between atoms: _115  and  _116
REMARK   50  A    between atoms: _118  and  _120
REMARK   51  A    between atoms: _120  and  _121
REMARK   52  A    between atoms: _120  and  _123
REMARK   53  A    between atoms: _123  and  _124
REMARK   54  A    between atoms: _126  and  _128
REMARK   55  A    between atoms: _128  and  _129
REMARK   56  A    between atoms: _128  and  _131
REMARK   57  A    between atoms: _131  and  _132
REMARK   58  A    between atoms: _135  and  _137
REMARK   59  A    between atoms: _137  and  _138
REMARK   60  A    between atoms: _137  and  _140
REMARK   61  A    between atoms: _140  and  _141
REMARK   62  A    between atoms: _151  and  _153
REMARK   63  A    between atoms: _153  and  _154
REMARK   64  A    between atoms: _153  and  _156
REMARK   65  A    between atoms: _156  and  _157
REMARK   66  A    between atoms: _159  and  _161
REMARK   67  A    between atoms: _161  and  _162
REMARK   68  A    between atoms: _161  and  _164
REMARK   69  A    between atoms: _164  and  _165
REMARK   70  A    between atoms: _168  and  _170
REMARK   71  A    between atoms: _170  and  _171
REMARK   72  A    between atoms: _170  and  _173
REMARK   73  A    between atoms: _173  and  _174
REMARK   74  A    between atoms: _176  and  _178
REMARK   75  A    between atoms: _178  and  _179
REMARK   76  A    between atoms: _178  and  _181
REMARK   77  A    between atoms: _181  and  _182
REMARK   78  A    between atoms: _187  and  _188
REMARK   79  A    between atoms: _190  and  _192
REMARK   80  A    between atoms: _192  and  _193
REMARK   81  A    between atoms: _195  and  _197
REMARK   82  A    between atoms: _197  and  _198
REMARK   83  A    between atoms: _197  and  _200
REMARK   84  A    between atoms: _200  and  _201
REMARK   85  A    between atoms: _204  and  _206
REMARK   86  A    between atoms: _206  and  _207
REMARK   87  A    between atoms: _209  and  _211
REMARK   88  A    between atoms: _211  and  _212
REMARK   89  A    between atoms: _211  and  _214
REMARK   90  A    between atoms: _214  and  _215
REMARK   91  A    between atoms: _217  and  _219
REMARK   92  A    between atoms: _219  and  _220
REMARK   93  A    between atoms: _219  and  _222
REMARK   94  A    between atoms: _222  and  _223
REMARK   95  A    between atoms: _225  and  _227
REMARK   96  A    between atoms: _227  and  _228
REMARK   97  A    between atoms: _227  and  _230
REMARK   98  A    between atoms: _230  and  _231
REMARK   99  A    between atoms: _233  and  _235
REMARK  100  A    between atoms: _235  and  _236
REMARK  101  A    between atoms: _235  and  _238
REMARK  102  A    between atoms: _238  and  _239
REMARK  103  A    between atoms: _241  and  _243
REMARK  104  A    between atoms: _243  and  _244
REMARK  105  A    between atoms: _243  and  _246
REMARK  106  A    between atoms: _246  and  _247
REMARK  107  A    between atoms: _249  and  _251
REMARK  108  A    between atoms: _251  and  _252
REMARK  109  A    between atoms: _251  and  _254
REMARK  110  A    between atoms: _254  and  _255
REMARK  111  A    between atoms: _261  and  _263
REMARK  112  A    between atoms: _263  and  _264
REMARK  113  A    between atoms: _263  and  _266
REMARK  114  A    between atoms: _266  and  _267
REMARK  115  A    between atoms: _270  and  _272
REMARK  116  A    between atoms: _272  and  _273
REMARK  117  A    between atoms: _272  and  _275
REMARK  118  A    between atoms: _275  and  _276
REMARK  119  A    between atoms: _279  and  _281
REMARK  120  A    between atoms: _281  and  _282
REMARK  121  A    between atoms: _281  and  _284
REMARK  122  A    between atoms: _284  and  _285
REMARK  123  A    between atoms: _288  and  _290
REMARK  124  A    between atoms: _290  and  _291
REMARK  125  A    between atoms: _293  and  _295
REMARK  126  A    between atoms: _295  and  _296
REMARK  127  A    between atoms: _295  and  _298
REMARK  128  A    between atoms: _298  and  _299
REMARK  129  A    between atoms: _302  and  _304
REMARK  130  A    between atoms: _304  and  _305
REMARK  131  A    between atoms: _304  and  _307
REMARK  132  A    between atoms: _307  and  _308
REMARK  133  A    between atoms: _311  and  _313
REMARK  134  A    between atoms: _313  and  _314
REMARK  135  A    between atoms: _316  and  _318
REMARK  136  A    between atoms: _318  and  _319
REMARK  137  A    between atoms: _318  and  _321
REMARK  138  A    between atoms: _321  and  _322
REMARK  139  A    between atoms: _325  and  _327
REMARK  140  A    between atoms: _327  and  _328
REMARK  141  A    between atoms: _331  and  _333
REMARK  142  A    between atoms: _333  and  _334
REMARK  143  A    between atoms: _333  and  _336
REMARK  144  A    between atoms: _336  and  _337
REMARK  145  A    between atoms: _343  and  _345
REMARK  146  A    between atoms: _345  and  _346
REMARK  147  A    between atoms: _345  and  _348
REMARK  148  A    between atoms: _348  and  _349
REMARK  149  A    between atoms: _352  and  _354
REMARK  150  A    between atoms: _354  and  _355
REMARK  151  A    between atoms: _354  and  _357
REMARK  152  A    between atoms: _357  and  _358
REMARK  153  A    between atoms: _363  and  _365
REMARK  154  A    between atoms: _365  and  _366
REMARK  155  A    between atoms: _365  and  _368
REMARK  156  A    between atoms: _368  and  _369
REMARK  157  A    between atoms: _372  and  _374
REMARK  158  A    between atoms: _374  and  _375
REMARK  159  A    between atoms: _374  and  _377
REMARK  160  A    between atoms: _377  and  _378
REMARK  161  A    between atoms: _378  and  _379
REMARK  162  A    between atoms: _384  and  _386
REMARK  163  A    between atoms: _386  and  _387
REMARK  164  A    between atoms: _389  and  _391
REMARK  165  A    between atoms: _391  and  _392
REMARK  166  A    between atoms: _391  and  _394
REMARK  167  A    between atoms: _394  and  _395
REMARK  168  A    between atoms: _401  and  _403
REMARK  169  A    between atoms: _403  and  _404
REMARK  170  A    between atoms: _403  and  _406
REMARK  171  A    between atoms: _406  and  _407
REMARK  172  A    between atoms: _417  and  _419
REMARK  173  A    between atoms: _419  and  _420
REMARK  174  A    between atoms: _419  and  _422
REMARK  175  A    between atoms: _422  and  _423
REMARK  176  A    between atoms: _426  and  _428
REMARK  177  A    between atoms: _428  and  _429
REMARK  178  A    between atoms: _432  and  _434
REMARK  179  A    between atoms: _434  and  _435
REMARK  180  A    between atoms: _434  and  _437
REMARK  181  A    between atoms: _437  and  _438
REMARK  182  A    between atoms: _441  and  _443
REMARK  183  A    between atoms: _443  and  _444
REMARK  184  A    between atoms: _443  and  _446
REMARK  185  A    between atoms: _446  and  _447
REMARK  186  A    between atoms: _450  and  _452
REMARK  187  A    between atoms: _452  and  _453
REMARK  188  A    between atoms: _455  and  _457
REMARK  189  A    between atoms: _457  and  _458
REMARK  190  A    between atoms: _457  and  _460
REMARK  191  A    between atoms: _460  and  _461
REMARK  192  A    between atoms: _464  and  _466
REMARK  193  A    between atoms: _466  and  _467
REMARK  194  A    between atoms: _466  and  _469
REMARK  195  A    between atoms: _469  and  _470
REMARK  196  A    between atoms: _473  and  _475
REMARK  197  A    between atoms: _475  and  _476
REMARK  198  A    between atoms: _475  and  _478
REMARK  199  A    between atoms: _478  and  _479
REMARK  200  A    between atoms: _482  and  _484
REMARK  201  A    between atoms: _484  and  _485
REMARK  202  A    between atoms: _484  and  _487
REMARK  203  A    between atoms: _487  and  _488
REMARK  204  A    between atoms: _491  and  _493
REMARK  205  A    between atoms: _493  and  _494
REMARK  206  A    between atoms: _493  and  _496
REMARK  207  A    between atoms: _496  and  _497
REMARK  208  A    between atoms: _502  and  _503
REMARK  209  A    between atoms: _505  and  _507
REMARK  210  A    between atoms: _507  and  _508
REMARK  211  A    between atoms: _507  and  _510
REMARK  212  A    between atoms: _510  and  _511
REMARK  213  A    between atoms: _517  and  _519
REMARK  214  A    between atoms: _519  and  _520
REMARK  215  A    between atoms: _519  and  _522
REMARK  216  A    between atoms: _522  and  _523
REMARK  217  A    between atoms: _526  and  _528
REMARK  218  A    between atoms: _528  and  _529
REMARK  219  A    between atoms: _531  and  _533
REMARK  220  A    between atoms: _533  and  _534
REMARK  221  A    between atoms: _533  and  _536
REMARK  222  A    between atoms: _536  and  _537
REMARK  223  A    between atoms: _540  and  _542
REMARK  224  A    between atoms: _542  and  _543
REMARK  225  A    between atoms: _542  and  _545
REMARK  226  A    between atoms: _545  and  _546
REMARK  227  A    between atoms: _551  and  _553
REMARK  228  A    between atoms: _553  and  _554
REMARK  229  A    between atoms: _553  and  _556
REMARK  230  A    between atoms: _556  and  _557
REMARK  231  A    between atoms: _560  and  _562
REMARK  232  A    between atoms: _562  and  _563
REMARK  233  A    between atoms: _562  and  _565
REMARK  234  A    between atoms: _565  and  _566
REMARK  235  A    between atoms: _572  and  _574
REMARK  236  A    between atoms: _574  and  _575
REMARK  237  A    between atoms: _577  and  _579
REMARK  238  A    between atoms: _579  and  _580
REMARK  239  A    between atoms: _579  and  _582
REMARK  240  A    between atoms: _582  and  _583
REMARK  241  A    between atoms: _586  and  _588
REMARK  242  A    between atoms: _588  and  _589
REMARK  243  A    between atoms: _588  and  _591
REMARK                            x       y       z     vdW  Elec       q    Type
REMARK                         _______ _______ _______ _____ _____    ______ ____
ROOT
ATOM      1  O   HOH     1      -3.550  11.256  15.465  0.00  0.00    +0.000 OA
ENDROOT
TORSDOF 0
REMARK  Name = ../refined-set-2016/3pww/3pww_pocket.pdb
REMARK  243 active torsions:
REMARK  status: ('A' for Active; 'I' for Inactive)
REMARK    1  A    between atoms: _1  and  _3
REMARK    2  A    between atoms: _3  and  _4
REMARK    3  A    between atoms: _3  and  _6
REMARK    4  A    between atoms: _6  and  _7
REMARK    5  A    between atoms: _10  and  _12
REMARK    6  A    between atoms: _12  and  _13
REMARK    7  A    between atoms: _12  and  _15
REMARK    8  A    between atoms: _15  and  _16
REMARK    9  A    between atoms: _19  and  _21
REMARK   10  A    between atoms: _21  and  _22
REMARK   11  A    between atoms: _21  and  _24
REMARK   12  A    between atoms: _24  and  _25
REMARK   13  A    between atoms: _28  and  _30
REMARK   14  A    between atoms: _30  and  _31
REMARK   15  A    between atoms: _30  and  _33
REMARK   16  A    between atoms: _33  and  _34
REMARK   17  A    between atoms: _37  and  _39
REMARK   18  A    between atoms: _39  and  _40
REMARK   19  A    between atoms: _39  and  _42
REMARK   20  A    between atoms: _42  and  _43
REMARK   21  A    between atoms: _46  and  _48
REMARK   22  A    between atoms: _48  and  _49
REMARK   23  A    between atoms: _52  and  _54
REMARK   24  A    between atoms: _54  and  _55
REMARK   25  A    between atoms: _54  and  _57
REMARK   26  A    between atoms: _57  and  _58
REMARK   27  A    between atoms: _63  and  _64
REMARK   28  A    between atoms: _66  and  _68
REMARK   29  A    between atoms: _68  and  _69
REMARK   30  A    between atoms: _68  and  _71
REMARK   31  A    between atoms: _71  and  _72
REMARK   32  A    between atoms: _75  and  _77
REMARK   33  A    between atoms: _77  and  _78
REMARK   34  A    between atoms: _77  and  _80
REMARK   35  A    between atoms: _80  and  _81
REMARK   36  A    between atoms: _87  and  _89
REMARK   37  A    between atoms: _89  and  _90
REMARK   38  A    between atoms: _89  and  _92
REMARK   39  A    between atoms: _92  and  _93
REMARK   40  A    between atoms: _96  and  _98
REMARK   41  A    between atoms: _98  and  _99
REMARK   42  A    between atoms: _98  and  _101
REMARK   43  A    between atoms: _101  and  _102
REMARK   44  A    between atoms: _105  and  _107
REMARK   45  A    between atoms: _107  and  _108
REMARK   46  A    between atoms: _110  and  _112
REMARK   47  A    between atoms: _112  and  _113
REMARK   48  A    between atoms: _112  and  _115
REMARK   49  A    between atoms: _115  and  _116
REMARK   50  A    between atoms: _118  and  _120
REMARK   51  A    between atoms: _120  and  _121
REMARK   52  A    between atoms: _120  and  _123
REMARK   53  A    between atoms: _123  and  _124
REMARK   54  A    between atoms: _126  and  _128
REMARK   55  A    between atoms: _128  and  _129
REMARK   56  A    between atoms: _128  and  _131
REMARK   57  A    between atoms: _131  and  _132
REMARK   58  A    between atoms: _135  and  _137
REMARK   59  A    between atoms: _137  and  _138
REMARK   60  A    between atoms: _137  and  _140
REMARK   61  A    between atoms: _140  and  _141
REMARK   62  A    between atoms: _151  and  _153
REMARK   63  A    between atoms: _153  and  _154
REMARK   64  A    between atoms: _153  and  _156
REMARK   65  A    between atoms: _156  and  _157
REMARK   66  A    between atoms: _159  and  _161
REMARK   67  A    between atoms: _161  and  _162
REMARK   68  A    between atoms: _161  and  _164
REMARK   69  A    between atoms: _164  and  _165
REMARK   70  A    between atoms: _168  and  _170
REMARK   71  A    between atoms: _170  and  _171
REMARK   72  A    between atoms: _170  and  _173
REMARK   73  A    between atoms: _173  and  _174
REMARK   74  A    between atoms: _176  and  _178
REMARK   75  A    between atoms: _178  and  _179
REMARK   76  A    between atoms: _178  and  _181
REMARK   77  A    between atoms: _181  and  _182
REMARK   78  A    between atoms: _187  and  _188
REMARK   79  A    between atoms: _190  and  _192
REMARK   80  A    between atoms: _192  and  _193
REMARK   81  A    between atoms: _195  and  _197
REMARK   82  A    between atoms: _197  and  _198
REMARK   83  A    between atoms: _197  and  _200
REMARK   84  A    between atoms: _200  and  _201
REMARK   85  A    between atoms: _204  and  _206
REMARK   86  A    between atoms: _206  and  _207
REMARK   87  A    between atoms: _209  and  _211
REMARK   88  A    between atoms: _211  and  _212
REMARK   89  A    between atoms: _211  and  _214
REMARK   90  A    between atoms: _214  and  _215
REMARK   91  A    between atoms: _217  and  _219
REMARK   92  A    between atoms: _219  and  _220
REMARK   93  A    between atoms: _219  and  _222
REMARK   94  A    between atoms: _222  and  _223
REMARK   95  A    between atoms: _225  and  _227
REMARK   96  A    between atoms: _227  and  _228
REMARK   97  A    between atoms: _227  and  _230
REMARK   98  A    between atoms: _230  and  _231
REMARK   99  A    between atoms: _233  and  _235
REMARK  100  A    between atoms: _235  and  _236
REMARK  101  A    between atoms: _235  and  _238
REMARK  102  A    between atoms: _238  and  _239
REMARK  103  A    between atoms: _241  and  _243
REMARK  104  A    between atoms: _243  and  _244
REMARK  105  A    between atoms: _243  and  _246
REMARK  106  A    between atoms: _246  and  _247
REMARK  107  A    between atoms: _249  and  _251
REMARK  108  A    between atoms: _251  and  _252
REMARK  109  A    between atoms: _251  and  _254
REMARK  110  A    between atoms: _254  and  _255
REMARK  111  A    between atoms: _261  and  _263
REMARK  112  A    between atoms: _263  and  _264
REMARK  113  A    between atoms: _263  and  _266
REMARK  114  A    between atoms: _266  and  _267
REMARK  115  A    between atoms: _270  and  _272
REMARK  116  A    between atoms: _272  and  _273
REMARK  117  A    between atoms: _272  and  _275
REMARK  118  A    between atoms: _275  and  _276
REMARK  119  A    between atoms: _279  and  _281
REMARK  120  A    between atoms: _281  and  _282
REMARK  121  A    between atoms: _281  and  _284
REMARK  122  A    between atoms: _284  and  _285
REMARK  123  A    between atoms: _288  and  _290
REMARK  124  A    between atoms: _290  and  _291
REMARK  125  A    between atoms: _293  and  _295
REMARK  126  A    between atoms: _295  and  _296
REMARK  127  A    between atoms: _295  and  _298
REMARK  128  A    between atoms: _298  and  _299
REMARK  129  A    between atoms: _302  and  _304
REMARK  130  A    between atoms: _304  and  _305
REMARK  131  A    between atoms: _304  and  _307
REMARK  132  A    between atoms: _307  and  _308
REMARK  133  A    between atoms: _311  and  _313
REMARK  134  A    between atoms: _313  and  _314
REMARK  135  A    between atoms: _316  and  _318
REMARK  136  A    between atoms: _318  and  _319
REMARK  137  A    between atoms: _318  and  _321
REMARK  138  A    between atoms: _321  and  _322
REMARK  139  A    between atoms: _325  and  _327
REMARK  140  A    between atoms: _327  and  _328
REMARK  141  A    between atoms: _331  and  _333
REMARK  142  A    between atoms: _333  and  _334
REMARK  143  A    between atoms: _333  and  _336
REMARK  144  A    between atoms: _336  and  _337
REMARK  145  A    between atoms: _343  and  _345
REMARK  146  A    between atoms: _345  and  _346
REMARK  147  A    between atoms: _345  and  _348
REMARK  148  A    between atoms: _348  and  _349
REMARK  149  A    between atoms: _352  and  _354
REMARK  150  A    between atoms: _354  and  _355
REMARK  151  A    between atoms: _354  and  _357
REMARK  152  A    between atoms: _357  and  _358
REMARK  153  A    between atoms: _363  and  _365
REMARK  154  A    between atoms: _365  and  _366
REMARK  155  A    between atoms: _365  and  _368
REMARK  156  A    between atoms: _368  and  _369
REMARK  157  A    between atoms: _372  and  _374
REMARK  158  A    between atoms: _374  and  _375
REMARK  159  A    between atoms: _374  and  _377
REMARK  160  A    between atoms: _377  and  _378
REMARK  161  A    between atoms: _378  and  _379
REMARK  162  A    between atoms: _384  and  _386
REMARK  163  A    between atoms: _386  and  _387
REMARK  164  A    between atoms: _389  and  _391
REMARK  165  A    between atoms: _391  and  _392
REMARK  166  A    between atoms: _391  and  _394
REMARK  167  A    between atoms: _394  and  _395
REMARK  168  A    between atoms: _401  and  _403
REMARK  169  A    between atoms: _403  and  _404
REMARK  170  A    between atoms: _403  and  _406
REMARK  171  A    between atoms: _406  and  _407
REMARK  172  A    between atoms: _417  and  _419
REMARK  173  A    between atoms: _419  and  _420
REMARK  174  A    between atoms: _419  and  _422
REMARK  175  A    between atoms: _422  and  _423
REMARK  176  A    between atoms: _426  and  _428
REMARK  177  A    between atoms: _428  and  _429
REMARK  178  A    between atoms: _432  and  _434
REMARK  179  A    between atoms: _434  and  _435
REMARK  180  A    between atoms: _434  and  _437
REMARK  181  A    between atoms: _437  and  _438
REMARK  182  A    between atoms: _441  and  _443
REMARK  183  A    between atoms: _443  and  _444
REMARK  184  A    between atoms: _443  and  _446
REMARK  185  A    between atoms: _446  and  _447
REMARK  186  A    between atoms: _450  and  _452
REMARK  187  A    between atoms: _452  and  _453
REMARK  188  A    between atoms: _455  and  _457
REMARK  189  A    between atoms: _457  and  _458
REMARK  190  A    between atoms: _457  and  _460
REMARK  191  A    between atoms: _460  and  _461
REMARK  192  A    between atoms: _464  and  _466
REMARK  193  A    between atoms: _466  and  _467
REMARK  194  A    between atoms: _466  and  _469
REMARK  195  A    between atoms: _469  and  _470
REMARK  196  A    between atoms: _473  and  _475
REMARK  197  A    between atoms: _475  and  _476
REMARK  198  A    between atoms: _475  and  _478
REMARK  199  A    between atoms: _478  and  _479
REMARK  200  A    between atoms: _482  and  _484
REMARK  201  A    between atoms: _484  and  _485
REMARK  202  A    between atoms: _484  and  _487
REMARK  203  A    between atoms: _487  and  _488
REMARK  204  A    between atoms: _491  and  _493
REMARK  205  A    between atoms: _493  and  _494
REMARK  206  A    between atoms: _493  and  _496
REMARK  207  A    between atoms: _496  and  _497
REMARK  208  A    between atoms: _502  and  _503
REMARK  209  A    between atoms: _505  and  _507
REMARK  210  A    between atoms: _507  and  _508
REMARK  211  A    between atoms: _507  and  _510
REMARK  212  A    between atoms: _510  and  _511
REMARK  213  A    between atoms: _517  and  _519
REMARK  214  A    between atoms: _519  and  _520
REMARK  215  A    between atoms: _519  and  _522
REMARK  216  A    between atoms: _522  and  _523
REMARK  217  A    between atoms: _526  and  _528
REMARK  218  A    between atoms: _528  and  _529
REMARK  219  A    between atoms: _531  and  _533
REMARK  220  A    between atoms: _533  and  _534
REMARK  221  A    between atoms: _533  and  _536
REMARK  222  A    between atoms: _536  and  _537
REMARK  223  A    between atoms: _540  and  _542
REMARK  224  A    between atoms: _542  and  _543
REMARK  225  A    between atoms: _542  and  _545
REMARK  226  A    between atoms: _545  and  _546
REMARK  227  A    between atoms: _551  and  _553
REMARK  228  A    between atoms: _553  and  _554
REMARK  229  A    between atoms: _553  and  _556
REMARK  230  A    between atoms: _556  and  _557
REMARK  231  A    between atoms: _560  and  _562
REMARK  232  A    between atoms: _562  and  _563
REMARK  233  A    between atoms: _562  and  _565
REMARK  234  A    between atoms: _565  and  _566
REMARK  235  A    between atoms: _572  and  _574
REMARK  236  A    between atoms: _574  and  _575
REMARK  237  A    between atoms: _577  and  _579
REMARK  238  A    between atoms: _579  and  _580
REMARK  239  A    between atoms: _579  and  _582
REMARK  240  A    between atoms: _582  and  _583
REMARK  241  A    between atoms: _586  and  _588
REMARK  242  A    between atoms: _588  and  _589
REMARK  243  A    between atoms: _588  and  _591
REMARK                            x       y       z     vdW  Elec       q    Type
REMARK                         _______ _______ _______ _____ _____    ______ ____
ROOT
ATOM      1  O   HOH     1      -6.427  -4.551  14.180  0.00  0.00    +0.000 OA
ENDROOT
TORSDOF 0
REMARK  Name = ../refined-set-2016/3pww/3pww_pocket.pdb
REMARK  243 active torsions:
REMARK  status: ('A' for Active; 'I' for Inactive)
REMARK    1  A    between atoms: _1  and  _3
REMARK    2  A    between atoms: _3  and  _4
REMARK    3  A    between atoms: _3  and  _6
REMARK    4  A    between atoms: _6  and  _7
REMARK    5  A    between atoms: _10  and  _12
REMARK    6  A    between atoms: _12  and  _13
REMARK    7  A    between atoms: _12  and  _15
REMARK    8  A    between atoms: _15  and  _16
REMARK    9  A    between atoms: _19  and  _21
REMARK   10  A    between atoms: _21  and  _22
REMARK   11  A    between atoms: _21  and  _24
REMARK   12  A    between atoms: _24  and  _25
REMARK   13  A    between atoms: _28  and  _30
REMARK   14  A    between atoms: _30  and  _31
REMARK   15  A    between atoms: _30  and  _33
REMARK   16  A    between atoms: _33  and  _34
REMARK   17  A    between atoms: _37  and  _39
REMARK   18  A    between atoms: _39  and  _40
REMARK   19  A    between atoms: _39  and  _42
REMARK   20  A    between atoms: _42  and  _43
REMARK   21  A    between atoms: _46  and  _48
REMARK   22  A    between atoms: _48  and  _49
REMARK   23  A    between atoms: _52  and  _54
REMARK   24  A    between atoms: _54  and  _55
REMARK   25  A    between atoms: _54  and  _57
REMARK   26  A    between atoms: _57  and  _58
REMARK   27  A    between atoms: _63  and  _64
REMARK   28  A    between atoms: _66  and  _68
REMARK   29  A    between atoms: _68  and  _69
REMARK   30  A    between atoms: _68  and  _71
REMARK   31  A    between atoms: _71  and  _72
REMARK   32  A    between atoms: _75  and  _77
REMARK   33  A    between atoms: _77  and  _78
REMARK   34  A    between atoms: _77  and  _80
REMARK   35  A    between atoms: _80  and  _81
REMARK   36  A    between atoms: _87  and  _89
REMARK   37  A    between atoms: _89  and  _90
REMARK   38  A    between atoms: _89  and  _92
REMARK   39  A    between atoms: _92  and  _93
REMARK   40  A    between atoms: _96  and  _98
REMARK   41  A    between atoms: _98  and  _99
REMARK   42  A    between atoms: _98  and  _101
REMARK   43  A    between atoms: _101  and  _102
REMARK   44  A    between atoms: _105  and  _107
REMARK   45  A    between atoms: _107  and  _108
REMARK   46  A    between atoms: _110  and  _112
REMARK   47  A    between atoms: _112  and  _113
REMARK   48  A    between atoms: _112  and  _115
REMARK   49  A    between atoms: _115  and  _116
REMARK   50  A    between atoms: _118  and  _120
REMARK   51  A    between atoms: _120  and  _121
REMARK   52  A    between atoms: _120  and  _123
REMARK   53  A    between atoms: _123  and  _124
REMARK   54  A    between atoms: _126  and  _128
REMARK   55  A    between atoms: _128  and  _129
REMARK   56  A    between atoms: _128  and  _131
REMARK   57  A    between atoms: _131  and  _132
REMARK   58  A    between atoms: _135  and  _137
REMARK   59  A    between atoms: _137  and  _138
REMARK   60  A    between atoms: _137  and  _140
REMARK   61  A    between atoms: _140  and  _141
REMARK   62  A    between atoms: _151  and  _153
REMARK   63  A    between atoms: _153  and  _154
REMARK   64  A    between atoms: _153  and  _156
REMARK   65  A    between atoms: _156  and  _157
REMARK   66  A    between atoms: _159  and  _161
REMARK   67  A    between atoms: _161  and  _162
REMARK   68  A    between atoms: _161  and  _164
REMARK   69  A    between atoms: _164  and  _165
REMARK   70  A    between atoms: _168  and  _170
REMARK   71  A    between atoms: _170  and  _171
REMARK   72  A    between atoms: _170  and  _173
REMARK   73  A    between atoms: _173  and  _174
REMARK   74  A    between atoms: _176  and  _178
REMARK   75  A    between atoms: _178  and  _179
REMARK   76  A    between atoms: _178  and  _181
REMARK   77  A    between atoms: _181  and  _182
REMARK   78  A    between atoms: _187  and  _188
REMARK   79  A    between atoms: _190  and  _192
REMARK   80  A    between atoms: _192  and  _193
REMARK   81  A    between atoms: _195  and  _197
REMARK   82  A    between atoms: _197  and  _198
REMARK   83  A    between atoms: _197  and  _200
REMARK   84  A    between atoms: _200  and  _201
REMARK   85  A    between atoms: _204  and  _206
REMARK   86  A    between atoms: _206  and  _207
REMARK   87  A    between atoms: _209  and  _211
REMARK   88  A    between atoms: _211  and  _212
REMARK   89  A    between atoms: _211  and  _214
REMARK   90  A    between atoms: _214  and  _215
REMARK   91  A    between atoms: _217  and  _219
REMARK   92  A    between atoms: _219  and  _220
REMARK   93  A    between atoms: _219  and  _222
REMARK   94  A    between atoms: _222  and  _223
REMARK   95  A    between atoms: _225  and  _227
REMARK   96  A    between atoms: _227  and  _228
REMARK   97  A    between atoms: _227  and  _230
REMARK   98  A    between atoms: _230  and  _231
REMARK   99  A    between atoms: _233  and  _235
REMARK  100  A    between atoms: _235  and  _236
REMARK  101  A    between atoms: _235  and  _238
REMARK  102  A    between atoms: _238  and  _239
REMARK  103  A    between atoms: _241  and  _243
REMARK  104  A    between atoms: _243  and  _244
REMARK  105  A    between atoms: _243  and  _246
REMARK  106  A    between atoms: _246  and  _247
REMARK  107  A    between atoms: _249  and  _251
REMARK  108  A    between atoms: _251  and  _252
REMARK  109  A    between atoms: _251  and  _254
REMARK  110  A    between atoms: _254  and  _255
REMARK  111  A    between atoms: _261  and  _263
REMARK  112  A    between atoms: _263  and  _264
REMARK  113  A    between atoms: _263  and  _266
REMARK  114  A    between atoms: _266  and  _267
REMARK  115  A    between atoms: _270  and  _272
REMARK  116  A    between atoms: _272  and  _273
REMARK  117  A    between atoms: _272  and  _275
REMARK  118  A    between atoms: _275  and  _276
REMARK  119  A    between atoms: _279  and  _281
REMARK  120  A    between atoms: _281  and  _282
REMARK  121  A    between atoms: _281  and  _284
REMARK  122  A    between atoms: _284  and  _285
REMARK  123  A    between atoms: _288  and  _290
REMARK  124  A    between atoms: _290  and  _291
REMARK  125  A    between atoms: _293  and  _295
REMARK  126  A    between atoms: _295  and  _296
REMARK  127  A    between atoms: _295  and  _298
REMARK  128  A    between atoms: _298  and  _299
REMARK  129  A    between atoms: _302  and  _304
REMARK  130  A    between atoms: _304  and  _305
REMARK  131  A    between atoms: _304  and  _307
REMARK  132  A    between atoms: _307  and  _308
REMARK  133  A    between atoms: _311  and  _313
REMARK  134  A    between atoms: _313  and  _314
REMARK  135  A    between atoms: _316  and  _318
REMARK  136  A    between atoms: _318  and  _319
REMARK  137  A    between atoms: _318  and  _321
REMARK  138  A    between atoms: _321  and  _322
REMARK  139  A    between atoms: _325  and  _327
REMARK  140  A    between atoms: _327  and  _328
REMARK  141  A    between atoms: _331  and  _333
REMARK  142  A    between atoms: _333  and  _334
REMARK  143  A    between atoms: _333  and  _336
REMARK  144  A    between atoms: _336  and  _337
REMARK  145  A    between atoms: _343  and  _345
REMARK  146  A    between atoms: _345  and  _346
REMARK  147  A    between atoms: _345  and  _348
REMARK  148  A    between atoms: _348  and  _349
REMARK  149  A    between atoms: _352  and  _354
REMARK  150  A    between atoms: _354  and  _355
REMARK  151  A    between atoms: _354  and  _357
REMARK  152  A    between atoms: _357  and  _358
REMARK  153  A    between atoms: _363  and  _365
REMARK  154  A    between atoms: _365  and  _366
REMARK  155  A    between atoms: _365  and  _368
REMARK  156  A    between atoms: _368  and  _369
REMARK  157  A    between atoms: _372  and  _374
REMARK  158  A    between atoms: _374  and  _375
REMARK  159  A    between atoms: _374  and  _377
REMARK  160  A    between atoms: _377  and  _378
REMARK  161  A    between atoms: _378  and  _379
REMARK  162  A    between atoms: _384  and  _386
REMARK  163  A    between atoms: _386  and  _387
REMARK  164  A    between atoms: _389  and  _391
REMARK  165  A    between atoms: _391  and  _392
REMARK  166  A    between atoms: _391  and  _394
REMARK  167  A    between atoms: _394  and  _395
REMARK  168  A    between atoms: _401  and  _403
REMARK  169  A    between atoms: _403  and  _404
REMARK  170  A    between atoms: _403  and  _406
REMARK  171  A    between atoms: _406  and  _407
REMARK  172  A    between atoms: _417  and  _419
REMARK  173  A    between atoms: _419  and  _420
REMARK  174  A    between atoms: _419  and  _422
REMARK  175  A    between atoms: _422  and  _423
REMARK  176  A    between atoms: _426  and  _428
REMARK  177  A    between atoms: _428  and  _429
REMARK  178  A    between atoms: _432  and  _434
REMARK  179  A    between atoms: _434  and  _435
REMARK  180  A    between atoms: _434  and  _437
REMARK  181  A    between atoms: _437  and  _438
REMARK  182  A    between atoms: _441  and  _443
REMARK  183  A    between atoms: _443  and  _444
REMARK  184  A    between atoms: _443  and  _446
REMARK  185  A    between atoms: _446  and  _447
REMARK  186  A    between atoms: _450  and  _452
REMARK  187  A    between atoms: _452  and  _453
REMARK  188  A    between atoms: _455  and  _457
REMARK  189  A    between atoms: _457  and  _458
REMARK  190  A    between atoms: _457  and  _460
REMARK  191  A    between atoms: _460  and  _461
REMARK  192  A    between atoms: _464  and  _466
REMARK  193  A    between atoms: _466  and  _467
REMARK  194  A    between atoms: _466  and  _469
REMARK  195  A    between atoms: _469  and  _470
REMARK  196  A    between atoms: _473  and  _475
REMARK  197  A    between atoms: _475  and  _476
REMARK  198  A    between atoms: _475  and  _478
REMARK  199  A    between atoms: _478  and  _479
REMARK  200  A    between atoms: _482  and  _484
REMARK  201  A    between atoms: _484  and  _485
REMARK  202  A    between atoms: _484  and  _487
REMARK  203  A    between atoms: _487  and  _488
REMARK  204  A    between atoms: _491  and  _493
REMARK  205  A    between atoms: _493  and  _494
REMARK  206  A    between atoms: _493  and  _496
REMARK  207  A    between atoms: _496  and  _497
REMARK  208  A    between atoms: _502  and  _503
REMARK  209  A    between atoms: _505  and  _507
REMARK  210  A    between atoms: _507  and  _508
REMARK  211  A    between atoms: _507  and  _510
REMARK  212  A    between atoms: _510  and  _511
REMARK  213  A    between atoms: _517  and  _519
REMARK  214  A    between atoms: _519  and  _520
REMARK  215  A    between atoms: _519  and  _522
REMARK  216  A    between atoms: _522  and  _523
REMARK  217  A    between atoms: _526  and  _528
REMARK  218  A    between atoms: _528  and  _529
REMARK  219  A    between atoms: _531  and  _533
REMARK  220  A    between atoms: _533  and  _534
REMARK  221  A    between atoms: _533  and  _536
REMARK  222  A    between atoms: _536  and  _537
REMARK  223  A    between atoms: _540  and  _542
REMARK  224  A    between atoms: _542  and  _543
REMARK  225  A    between atoms: _542  and  _545
REMARK  226  A    between atoms: _545  and  _546
REMARK  227  A    between atoms: _551  and  _553
REMARK  228  A    between atoms: _553  and  _554
REMARK  229  A    between atoms: _553  and  _556
REMARK  230  A    between atoms: _556  and  _557
REMARK  231  A    between atoms: _560  and  _562
REMARK  232  A    between atoms: _562  and  _563
REMARK  233  A    between atoms: _562  and  _565
REMARK  234  A    between atoms: _565  and  _566
REMARK  235  A    between atoms: _572  and  _574
REMARK  236  A    between atoms: _574  and  _575
REMARK  237  A    between atoms: _577  and  _579
REMARK  238  A    between atoms: _579  and  _580
REMARK  239  A    between atoms: _579  and  _582
REMARK  240  A    between atoms: _582  and  _583
REMARK  241  A    between atoms: _586  and  _588
REMARK  242  A    between atoms: _588  and  _589
REMARK  243  A    between atoms: _588  and  _591
REMARK                            x       y       z     vdW  Elec       q    Type
REMARK                         _______ _______ _______ _____ _____    ______ ____
ROOT
ATOM      1  O   HOH     1       3.462   1.518  16.050  0.00  0.00    +0.000 OA
ENDROOT
TORSDOF 0
REMARK  Name = ../refined-set-2016/3pww/3pww_pocket.pdb
REMARK  243 active torsions:
REMARK  status: ('A' for Active; 'I' for Inactive)
REMARK    1  A    between atoms: _1  and  _3
REMARK    2  A    between atoms: _3  and  _4
REMARK    3  A    between atoms: _3  and  _6
REMARK    4  A    between atoms: _6  and  _7
REMARK    5  A    between atoms: _10  and  _12
REMARK    6  A    between atoms: _12  and  _13
REMARK    7  A    between atoms: _12  and  _15
REMARK    8  A    between atoms: _15  and  _16
REMARK    9  A    between atoms: _19  and  _21
REMARK   10  A    between atoms: _21  and  _22
REMARK   11  A    between atoms: _21  and  _24
REMARK   12  A    between atoms: _24  and  _25
REMARK   13  A    between atoms: _28  and  _30
REMARK   14  A    between atoms: _30  and  _31
REMARK   15  A    between atoms: _30  and  _33
REMARK   16  A    between atoms: _33  and  _34
REMARK   17  A    between atoms: _37  and  _39
REMARK   18  A    between atoms: _39  and  _40
REMARK   19  A    between atoms: _39  and  _42
REMARK   20  A    between atoms: _42  and  _43
REMARK   21  A    between atoms: _46  and  _48
REMARK   22  A    between atoms: _48  and  _49
REMARK   23  A    between atoms: _52  and  _54
REMARK   24  A    between atoms: _54  and  _55
REMARK   25  A    between atoms: _54  and  _57
REMARK   26  A    between atoms: _57  and  _58
REMARK   27  A    between atoms: _63  and  _64
REMARK   28  A    between atoms: _66  and  _68
REMARK   29  A    between atoms: _68  and  _69
REMARK   30  A    between atoms: _68  and  _71
REMARK   31  A    between atoms: _71  and  _72
REMARK   32  A    between atoms: _75  and  _77
REMARK   33  A    between atoms: _77  and  _78
REMARK   34  A    between atoms: _77  and  _80
REMARK   35  A    between atoms: _80  and  _81
REMARK   36  A    between atoms: _87  and  _89
REMARK   37  A    between atoms: _89  and  _90
REMARK   38  A    between atoms: _89  and  _92
REMARK   39  A    between atoms: _92  and  _93
REMARK   40  A    between atoms: _96  and  _98
REMARK   41  A    between atoms: _98  and  _99
REMARK   42  A    between atoms: _98  and  _101
REMARK   43  A    between atoms: _101  and  _102
REMARK   44  A    between atoms: _105  and  _107
REMARK   45  A    between atoms: _107  and  _108
REMARK   46  A    between atoms: _110  and  _112
REMARK   47  A    between atoms: _112  and  _113
REMARK   48  A    between atoms: _112  and  _115
REMARK   49  A    between atoms: _115  and  _116
REMARK   50  A    between atoms: _118  and  _120
REMARK   51  A    between atoms: _120  and  _121
REMARK   52  A    between atoms: _120  and  _123
REMARK   53  A    between atoms: _123  and  _124
REMARK   54  A    between atoms: _126  and  _128
REMARK   55  A    between atoms: _128  and  _129
REMARK   56  A    between atoms: _128  and  _131
REMARK   57  A    between atoms: _131  and  _132
REMARK   58  A    between atoms: _135  and  _137
REMARK   59  A    between atoms: _137  and  _138
REMARK   60  A    between atoms: _137  and  _140
REMARK   61  A    between atoms: _140  and  _141
REMARK   62  A    between atoms: _151  and  _153
REMARK   63  A    between atoms: _153  and  _154
REMARK   64  A    between atoms: _153  and  _156
REMARK   65  A    between atoms: _156  and  _157
REMARK   66  A    between atoms: _159  and  _161
REMARK   67  A    between atoms: _161  and  _162
REMARK   68  A    between atoms: _161  and  _164
REMARK   69  A    between atoms: _164  and  _165
REMARK   70  A    between atoms: _168  and  _170
REMARK   71  A    between atoms: _170  and  _171
REMARK   72  A    between atoms: _170  and  _173
REMARK   73  A    between atoms: _173  and  _174
REMARK   74  A    between atoms: _176  and  _178
REMARK   75  A    between atoms: _178  and  _179
REMARK   76  A    between atoms: _178  and  _181
REMARK   77  A    between atoms: _181  and  _182
REMARK   78  A    between atoms: _187  and  _188
REMARK   79  A    between atoms: _190  and  _192
REMARK   80  A    between atoms: _192  and  _193
REMARK   81  A    between atoms: _195  and  _197
REMARK   82  A    between atoms: _197  and  _198
REMARK   83  A    between atoms: _197  and  _200
REMARK   84  A    between atoms: _200  and  _201
REMARK   85  A    between atoms: _204  and  _206
REMARK   86  A    between atoms: _206  and  _207
REMARK   87  A    between atoms: _209  and  _211
REMARK   88  A    between atoms: _211  and  _212
REMARK   89  A    between atoms: _211  and  _214
REMARK   90  A    between atoms: _214  and  _215
REMARK   91  A    between atoms: _217  and  _219
REMARK   92  A    between atoms: _219  and  _220
REMARK   93  A    between atoms: _219  and  _222
REMARK   94  A    between atoms: _222  and  _223
REMARK   95  A    between atoms: _225  and  _227
REMARK   96  A    between atoms: _227  and  _228
REMARK   97  A    between atoms: _227  and  _230
REMARK   98  A    between atoms: _230  and  _231
REMARK   99  A    between atoms: _233  and  _235
REMARK  100  A    between atoms: _235  and  _236
REMARK  101  A    between atoms: _235  and  _238
REMARK  102  A    between atoms: _238  and  _239
REMARK  103  A    between atoms: _241  and  _243
REMARK  104  A    between atoms: _243  and  _244
REMARK  105  A    between atoms: _243  and  _246
REMARK  106  A    between atoms: _246  and  _247
REMARK  107  A    between atoms: _249  and  _251
REMARK  108  A    between atoms: _251  and  _252
REMARK  109  A    between atoms: _251  and  _254
REMARK  110  A    between atoms: _254  and  _255
REMARK  111  A    between atoms: _261  and  _263
REMARK  112  A    between atoms: _263  and  _264
REMARK  113  A    between atoms: _263  and  _266
REMARK  114  A    between atoms: _266  and  _267
REMARK  115  A    between atoms: _270  and  _272
REMARK  116  A    between atoms: _272  and  _273
REMARK  117  A    between atoms: _272  and  _275
REMARK  118  A    between atoms: _275  and  _276
REMARK  119  A    between atoms: _279  and  _281
REMARK  120  A    between atoms: _281  and  _282
REMARK  121  A    between atoms: _281  and  _284
REMARK  122  A    between atoms: _284  and  _285
REMARK  123  A    between atoms: _288  and  _290
REMARK  124  A    between atoms: _290  and  _291
REMARK  125  A    between atoms: _293  and  _295
REMARK  126  A    between atoms: _295  and  _296
REMARK  127  A    between atoms: _295  and  _298
REMARK  128  A    between atoms: _298  and  _299
REMARK  129  A    between atoms: _302  and  _304
REMARK  130  A    between atoms: _304  and  _305
REMARK  131  A    between atoms: _304  and  _307
REMARK  132  A    between atoms: _307  and  _308
REMARK  133  A    between atoms: _311  and  _313
REMARK  134  A    between atoms: _313  and  _314
REMARK  135  A    between atoms: _316  and  _318
REMARK  136  A    between atoms: _318  and  _319
REMARK  137  A    between atoms: _318  and  _321
REMARK  138  A    between atoms: _321  and  _322
REMARK  139  A    between atoms: _325  and  _327
REMARK  140  A    between atoms: _327  and  _328
REMARK  141  A    between atoms: _331  and  _333
REMARK  142  A    between atoms: _333  and  _334
REMARK  143  A    between atoms: _333  and  _336
REMARK  144  A    between atoms: _336  and  _337
REMARK  145  A    between atoms: _343  and  _345
REMARK  146  A    between atoms: _345  and  _346
REMARK  147  A    between atoms: _345  and  _348
REMARK  148  A    between atoms: _348  and  _349
REMARK  149  A    between atoms: _352  and  _354
REMARK  150  A    between atoms: _354  and  _355
REMARK  151  A    between atoms: _354  and  _357
REMARK  152  A    between atoms: _357  and  _358
REMARK  153  A    between atoms: _363  and  _365
REMARK  154  A    between atoms: _365  and  _366
REMARK  155  A    between atoms: _365  and  _368
REMARK  156  A    between atoms: _368  and  _369
REMARK  157  A    between atoms: _372  and  _374
REMARK  158  A    between atoms: _374  and  _375
REMARK  159  A    between atoms: _374  and  _377
REMARK  160  A    between atoms: _377  and  _378
REMARK  161  A    between atoms: _378  and  _379
REMARK  162  A    between atoms: _384  and  _386
REMARK  163  A    between atoms: _386  and  _387
REMARK  164  A    between atoms: _389  and  _391
REMARK  165  A    between atoms: _391  and  _392
REMARK  166  A    between atoms: _391  and  _394
REMARK  167  A    between atoms: _394  and  _395
REMARK  168  A    between atoms: _401  and  _403
REMARK  169  A    between atoms: _403  and  _404
REMARK  170  A    between atoms: _403  and  _406
REMARK  171  A    between atoms: _406  and  _407
REMARK  172  A    between atoms: _417  and  _419
REMARK  173  A    between atoms: _419  and  _420
REMARK  174  A    between atoms: _419  and  _422
REMARK  175  A    between atoms: _422  and  _423
REMARK  176  A    between atoms: _426  and  _428
REMARK  177  A    between atoms: _428  and  _429
REMARK  178  A    between atoms: _432  and  _434
REMARK  179  A    between atoms: _434  and  _435
REMARK  180  A    between atoms: _434  and  _437
REMARK  181  A    between atoms: _437  and  _438
REMARK  182  A    between atoms: _441  and  _443
REMARK  183  A    between atoms: _443  and  _444
REMARK  184  A    between atoms: _443  and  _446
REMARK  185  A    between atoms: _446  and  _447
REMARK  186  A    between atoms: _450  and  _452
REMARK  187  A    between atoms: _452  and  _453
REMARK  188  A    between atoms: _455  and  _457
REMARK  189  A    between atoms: _457  and  _458
REMARK  190  A    between atoms: _457  and  _460
REMARK  191  A    between atoms: _460  and  _461
REMARK  192  A    between atoms: _464  and  _466
REMARK  193  A    between atoms: _466  and  _467
REMARK  194  A    between atoms: _466  and  _469
REMARK  195  A    between atoms: _469  and  _470
REMARK  196  A    between atoms: _473  and  _475
REMARK  197  A    between atoms: _475  and  _476
REMARK  198  A    between atoms: _475  and  _478
REMARK  199  A    between atoms: _478  and  _479
REMARK  200  A    between atoms: _482  and  _484
REMARK  201  A    between atoms: _484  and  _485
REMARK  202  A    between atoms: _484  and  _487
REMARK  203  A    between atoms: _487  and  _488
REMARK  204  A    between atoms: _491  and  _493
REMARK  205  A    between atoms: _493  and  _494
REMARK  206  A    between atoms: _493  and  _496
REMARK  207  A    between atoms: _496  and  _497
REMARK  208  A    between atoms: _502  and  _503
REMARK  209  A    between atoms: _505  and  _507
REMARK  210  A    between atoms: _507  and  _508
REMARK  211  A    between atoms: _507  and  _510
REMARK  212  A    between atoms: _510  and  _511
REMARK  213  A    between atoms: _517  and  _519
REMARK  214  A    between atoms: _519  and  _520
REMARK  215  A    between atoms: _519  and  _522
REMARK  216  A    between atoms: _522  and  _523
REMARK  217  A    between atoms: _526  and  _528
REMARK  218  A    between atoms: _528  and  _529
REMARK  219  A    between atoms: _531  and  _533
REMARK  220  A    between atoms: _533  and  _534
REMARK  221  A    between atoms: _533  and  _536
REMARK  222  A    between atoms: _536  and  _537
REMARK  223  A    between atoms: _540  and  _542
REMARK  224  A    between atoms: _542  and  _543
REMARK  225  A    between atoms: _542  and  _545
REMARK  226  A    between atoms: _545  and  _546
REMARK  227  A    between atoms: _551  and  _553
REMARK  228  A    between atoms: _553  and  _554
REMARK  229  A    between atoms: _553  and  _556
REMARK  230  A    between atoms: _556  and  _557
REMARK  231  A    between atoms: _560  and  _562
REMARK  232  A    between atoms: _562  and  _563
REMARK  233  A    between atoms: _562  and  _565
REMARK  234  A    between atoms: _565  and  _566
REMARK  235  A    between atoms: _572  and  _574
REMARK  236  A    between atoms: _574  and  _575
REMARK  237  A    between atoms: _577  and  _579
REMARK  238  A    between atoms: _579  and  _580
REMARK  239  A    between atoms: _579  and  _582
REMARK  240  A    between atoms: _582  and  _583
REMARK  241  A    between atoms: _586  and  _588
REMARK  242  A    between atoms: _588  and  _589
REMARK  243  A    between atoms: _588  and  _591
REMARK                            x       y       z     vdW  Elec       q    Type
REMARK                         _______ _______ _______ _____ _____    ______ ____
ROOT
ATOM      1  O   HOH     1      -7.781   4.181   7.730  0.00  0.00    +0.000 OA
ENDROOT
TORSDOF 0
REMARK  Name = ../refined-set-2016/3pww/3pww_pocket.pdb
REMARK  243 active torsions:
REMARK  status: ('A' for Active; 'I' for Inactive)
REMARK    1  A    between atoms: _1  and  _3
REMARK    2  A    between atoms: _3  and  _4
REMARK    3  A    between atoms: _3  and  _6
REMARK    4  A    between atoms: _6  and  _7
REMARK    5  A    between atoms: _10  and  _12
REMARK    6  A    between atoms: _12  and  _13
REMARK    7  A    between atoms: _12  and  _15
REMARK    8  A    between atoms: _15  and  _16
REMARK    9  A    between atoms: _19  and  _21
REMARK   10  A    between atoms: _21  and  _22
REMARK   11  A    between atoms: _21  and  _24
REMARK   12  A    between atoms: _24  and  _25
REMARK   13  A    between atoms: _28  and  _30
REMARK   14  A    between atoms: _30  and  _31
REMARK   15  A    between atoms: _30  and  _33
REMARK   16  A    between atoms: _33  and  _34
REMARK   17  A    between atoms: _37  and  _39
REMARK   18  A    between atoms: _39  and  _40
REMARK   19  A    between atoms: _39  and  _42
REMARK   20  A    between atoms: _42  and  _43
REMARK   21  A    between atoms: _46  and  _48
REMARK   22  A    between atoms: _48  and  _49
REMARK   23  A    between atoms: _52  and  _54
REMARK   24  A    between atoms: _54  and  _55
REMARK   25  A    between atoms: _54  and  _57
REMARK   26  A    between atoms: _57  and  _58
REMARK   27  A    between atoms: _63  and  _64
REMARK   28  A    between atoms: _66  and  _68
REMARK   29  A    between atoms: _68  and  _69
REMARK   30  A    between atoms: _68  and  _71
REMARK   31  A    between atoms: _71  and  _72
REMARK   32  A    between atoms: _75  and  _77
REMARK   33  A    between atoms: _77  and  _78
REMARK   34  A    between atoms: _77  and  _80
REMARK   35  A    between atoms: _80  and  _81
REMARK   36  A    between atoms: _87  and  _89
REMARK   37  A    between atoms: _89  and  _90
REMARK   38  A    between atoms: _89  and  _92
REMARK   39  A    between atoms: _92  and  _93
REMARK   40  A    between atoms: _96  and  _98
REMARK   41  A    between atoms: _98  and  _99
REMARK   42  A    between atoms: _98  and  _101
REMARK   43  A    between atoms: _101  and  _102
REMARK   44  A    between atoms: _105  and  _107
REMARK   45  A    between atoms: _107  and  _108
REMARK   46  A    between atoms: _110  and  _112
REMARK   47  A    between atoms: _112  and  _113
REMARK   48  A    between atoms: _112  and  _115
REMARK   49  A    between atoms: _115  and  _116
REMARK   50  A    between atoms: _118  and  _120
REMARK   51  A    between atoms: _120  and  _121
REMARK   52  A    between atoms: _120  and  _123
REMARK   53  A    between atoms: _123  and  _124
REMARK   54  A    between atoms: _126  and  _128
REMARK   55  A    between atoms: _128  and  _129
REMARK   56  A    between atoms: _128  and  _131
REMARK   57  A    between atoms: _131  and  _132
REMARK   58  A    between atoms: _135  and  _137
REMARK   59  A    between atoms: _137  and  _138
REMARK   60  A    between atoms: _137  and  _140
REMARK   61  A    between atoms: _140  and  _141
REMARK   62  A    between atoms: _151  and  _153
REMARK   63  A    between atoms: _153  and  _154
REMARK   64  A    between atoms: _153  and  _156
REMARK   65  A    between atoms: _156  and  _157
REMARK   66  A    between atoms: _159  and  _161
REMARK   67  A    between atoms: _161  and  _162
REMARK   68  A    between atoms: _161  and  _164
REMARK   69  A    between atoms: _164  and  _165
REMARK   70  A    between atoms: _168  and  _170
REMARK   71  A    between atoms: _170  and  _171
REMARK   72  A    between atoms: _170  and  _173
REMARK   73  A    between atoms: _173  and  _174
REMARK   74  A    between atoms: _176  and  _178
REMARK   75  A    between atoms: _178  and  _179
REMARK   76  A    between atoms: _178  and  _181
REMARK   77  A    between atoms: _181  and  _182
REMARK   78  A    between atoms: _187  and  _188
REMARK   79  A    between atoms: _190  and  _192
REMARK   80  A    between atoms: _192  and  _193
REMARK   81  A    between atoms: _195  and  _197
REMARK   82  A    between atoms: _197  and  _198
REMARK   83  A    between atoms: _197  and  _200
REMARK   84  A    between atoms: _200  and  _201
REMARK   85  A    between atoms: _204  and  _206
REMARK   86  A    between atoms: _206  and  _207
REMARK   87  A    between atoms: _209  and  _211
REMARK   88  A    between atoms: _211  and  _212
REMARK   89  A    between atoms: _211  and  _214
REMARK   90  A    between atoms: _214  and  _215
REMARK   91  A    between atoms: _217  and  _219
REMARK   92  A    between atoms: _219  and  _220
REMARK   93  A    between atoms: _219  and  _222
REMARK   94  A    between atoms: _222  and  _223
REMARK   95  A    between atoms: _225  and  _227
REMARK   96  A    between atoms: _227  and  _228
REMARK   97  A    between atoms: _227  and  _230
REMARK   98  A    between atoms: _230  and  _231
REMARK   99  A    between atoms: _233  and  _235
REMARK  100  A    between atoms: _235  and  _236
REMARK  101  A    between atoms: _235  and  _238
REMARK  102  A    between atoms: _238  and  _239
REMARK  103  A    between atoms: _241  and  _243
REMARK  104  A    between atoms: _243  and  _244
REMARK  105  A    between atoms: _243  and  _246
REMARK  106  A    between atoms: _246  and  _247
REMARK  107  A    between atoms: _249  and  _251
REMARK  108  A    between atoms: _251  and  _252
REMARK  109  A    between atoms: _251  and  _254
REMARK  110  A    between atoms: _254  and  _255
REMARK  111  A    between atoms: _261  and  _263
REMARK  112  A    between atoms: _263  and  _264
REMARK  113  A    between atoms: _263  and  _266
REMARK  114  A    between atoms: _266  and  _267
REMARK  115  A    between atoms: _270  and  _272
REMARK  116  A    between atoms: _272  and  _273
REMARK  117  A    between atoms: _272  and  _275
REMARK  118  A    between atoms: _275  and  _276
REMARK  119  A    between atoms: _279  and  _281
REMARK  120  A    between atoms: _281  and  _282
REMARK  121  A    between atoms: _281  and  _284
REMARK  122  A    between atoms: _284  and  _285
REMARK  123  A    between atoms: _288  and  _290
REMARK  124  A    between atoms: _290  and  _291
REMARK  125  A    between atoms: _293  and  _295
REMARK  126  A    between atoms: _295  and  _296
REMARK  127  A    between atoms: _295  and  _298
REMARK  128  A    between atoms: _298  and  _299
REMARK  129  A    between atoms: _302  and  _304
REMARK  130  A    between atoms: _304  and  _305
REMARK  131  A    between atoms: _304  and  _307
REMARK  132  A    between atoms: _307  and  _308
REMARK  133  A    between atoms: _311  and  _313
REMARK  134  A    between atoms: _313  and  _314
REMARK  135  A    between atoms: _316  and  _318
REMARK  136  A    between atoms: _318  and  _319
REMARK  137  A    between atoms: _318  and  _321
REMARK  138  A    between atoms: _321  and  _322
REMARK  139  A    between atoms: _325  and  _327
REMARK  140  A    between atoms: _327  and  _328
REMARK  141  A    between atoms: _331  and  _333
REMARK  142  A    between atoms: _333  and  _334
REMARK  143  A    between atoms: _333  and  _336
REMARK  144  A    between atoms: _336  and  _337
REMARK  145  A    between atoms: _343  and  _345
REMARK  146  A    between atoms: _345  and  _346
REMARK  147  A    between atoms: _345  and  _348
REMARK  148  A    between atoms: _348  and  _349
REMARK  149  A    between atoms: _352  and  _354
REMARK  150  A    between atoms: _354  and  _355
REMARK  151  A    between atoms: _354  and  _357
REMARK  152  A    between atoms: _357  and  _358
REMARK  153  A    between atoms: _363  and  _365
REMARK  154  A    between atoms: _365  and  _366
REMARK  155  A    between atoms: _365  and  _368
REMARK  156  A    between atoms: _368  and  _369
REMARK  157  A    between atoms: _372  and  _374
REMARK  158  A    between atoms: _374  and  _375
REMARK  159  A    between atoms: _374  and  _377
REMARK  160  A    between atoms: _377  and  _378
REMARK  161  A    between atoms: _378  and  _379
REMARK  162  A    between atoms: _384  and  _386
REMARK  163  A    between atoms: _386  and  _387
REMARK  164  A    between atoms: _389  and  _391
REMARK  165  A    between atoms: _391  and  _392
REMARK  166  A    between atoms: _391  and  _394
REMARK  167  A    between atoms: _394  and  _395
REMARK  168  A    between atoms: _401  and  _403
REMARK  169  A    between atoms: _403  and  _404
REMARK  170  A    between atoms: _403  and  _406
REMARK  171  A    between atoms: _406  and  _407
REMARK  172  A    between atoms: _417  and  _419
REMARK  173  A    between atoms: _419  and  _420
REMARK  174  A    between atoms: _419  and  _422
REMARK  175  A    between atoms: _422  and  _423
REMARK  176  A    between atoms: _426  and  _428
REMARK  177  A    between atoms: _428  and  _429
REMARK  178  A    between atoms: _432  and  _434
REMARK  179  A    between atoms: _434  and  _435
REMARK  180  A    between atoms: _434  and  _437
REMARK  181  A    between atoms: _437  and  _438
REMARK  182  A    between atoms: _441  and  _443
REMARK  183  A    between atoms: _443  and  _444
REMARK  184  A    between atoms: _443  and  _446
REMARK  185  A    between atoms: _446  and  _447
REMARK  186  A    between atoms: _450  and  _452
REMARK  187  A    between atoms: _452  and  _453
REMARK  188  A    between atoms: _455  and  _457
REMARK  189  A    between atoms: _457  and  _458
REMARK  190  A    between atoms: _457  and  _460
REMARK  191  A    between atoms: _460  and  _461
REMARK  192  A    between atoms: _464  and  _466
REMARK  193  A    between atoms: _466  and  _467
REMARK  194  A    between atoms: _466  and  _469
REMARK  195  A    between atoms: _469  and  _470
REMARK  196  A    between atoms: _473  and  _475
REMARK  197  A    between atoms: _475  and  _476
REMARK  198  A    between atoms: _475  and  _478
REMARK  199  A    between atoms: _478  and  _479
REMARK  200  A    between atoms: _482  and  _484
REMARK  201  A    between atoms: _484  and  _485
REMARK  202  A    between atoms: _484  and  _487
REMARK  203  A    between atoms: _487  and  _488
REMARK  204  A    between atoms: _491  and  _493
REMARK  205  A    between atoms: _493  and  _494
REMARK  206  A    between atoms: _493  and  _496
REMARK  207  A    between atoms: _496  and  _497
REMARK  208  A    between atoms: _502  and  _503
REMARK  209  A    between atoms: _505  and  _507
REMARK  210  A    between atoms: _507  and  _508
REMARK  211  A    between atoms: _507  and  _510
REMARK  212  A    between atoms: _510  and  _511
REMARK  213  A    between atoms: _517  and  _519
REMARK  214  A    between atoms: _519  and  _520
REMARK  215  A    between atoms: _519  and  _522
REMARK  216  A    between atoms: _522  and  _523
REMARK  217  A    between atoms: _526  and  _528
REMARK  218  A    between atoms: _528  and  _529
REMARK  219  A    between atoms: _531  and  _533
REMARK  220  A    between atoms: _533  and  _534
REMARK  221  A    between atoms: _533  and  _536
REMARK  222  A    between atoms: _536  and  _537
REMARK  223  A    between atoms: _540  and  _542
REMARK  224  A    between atoms: _542  and  _543
REMARK  225  A    between atoms: _542  and  _545
REMARK  226  A    between atoms: _545  and  _546
REMARK  227  A    between atoms: _551  and  _553
REMARK  228  A    between atoms: _553  and  _554
REMARK  229  A    between atoms: _553  and  _556
REMARK  230  A    between atoms: _556  and  _557
REMARK  231  A    between atoms: _560  and  _562
REMARK  232  A    between atoms: _562  and  _563
REMARK  233  A    between atoms: _562  and  _565
REMARK  234  A    between atoms: _565  and  _566
REMARK  235  A    between atoms: _572  and  _574
REMARK  236  A    between atoms: _574  and  _575
REMARK  237  A    between atoms: _577  and  _579
REMARK  238  A    between atoms: _579  and  _580
REMARK  239  A    between atoms: _579  and  _582
REMARK  240  A    between atoms: _582  and  _583
REMARK  241  A    between atoms: _586  and  _588
REMARK  242  A    between atoms: _588  and  _589
REMARK  243  A    between atoms: _588  and  _591
REMARK                            x       y       z     vdW  Elec       q    Type
REMARK                         _______ _______ _______ _____ _____    ______ ____
ROOT
ATOM      1  O   HOH     1      -1.195  -0.360   4.610  0.00  0.00    +0.000 OA
ENDROOT
TORSDOF 0
REMARK  Name = ../refined-set-2016/3pww/3pww_pocket.pdb
REMARK  243 active torsions:
REMARK  status: ('A' for Active; 'I' for Inactive)
REMARK    1  A    between atoms: _1  and  _3
REMARK    2  A    between atoms: _3  and  _4
REMARK    3  A    between atoms: _3  and  _6
REMARK    4  A    between atoms: _6  and  _7
REMARK    5  A    between atoms: _10  and  _12
REMARK    6  A    between atoms: _12  and  _13
REMARK    7  A    between atoms: _12  and  _15
REMARK    8  A    between atoms: _15  and  _16
REMARK    9  A    between atoms: _19  and  _21
REMARK   10  A    between atoms: _21  and  _22
REMARK   11  A    between atoms: _21  and  _24
REMARK   12  A    between atoms: _24  and  _25
REMARK   13  A    between atoms: _28  and  _30
REMARK   14  A    between atoms: _30  and  _31
REMARK   15  A    between atoms: _30  and  _33
REMARK   16  A    between atoms: _33  and  _34
REMARK   17  A    between atoms: _37  and  _39
REMARK   18  A    between atoms: _39  and  _40
REMARK   19  A    between atoms: _39  and  _42
REMARK   20  A    between atoms: _42  and  _43
REMARK   21  A    between atoms: _46  and  _48
REMARK   22  A    between atoms: _48  and  _49
REMARK   23  A    between atoms: _52  and  _54
REMARK   24  A    between atoms: _54  and  _55
REMARK   25  A    between atoms: _54  and  _57
REMARK   26  A    between atoms: _57  and  _58
REMARK   27  A    between atoms: _63  and  _64
REMARK   28  A    between atoms: _66  and  _68
REMARK   29  A    between atoms: _68  and  _69
REMARK   30  A    between atoms: _68  and  _71
REMARK   31  A    between atoms: _71  and  _72
REMARK   32  A    between atoms: _75  and  _77
REMARK   33  A    between atoms: _77  and  _78
REMARK   34  A    between atoms: _77  and  _80
REMARK   35  A    between atoms: _80  and  _81
REMARK   36  A    between atoms: _87  and  _89
REMARK   37  A    between atoms: _89  and  _90
REMARK   38  A    between atoms: _89  and  _92
REMARK   39  A    between atoms: _92  and  _93
REMARK   40  A    between atoms: _96  and  _98
REMARK   41  A    between atoms: _98  and  _99
REMARK   42  A    between atoms: _98  and  _101
REMARK   43  A    between atoms: _101  and  _102
REMARK   44  A    between atoms: _105  and  _107
REMARK   45  A    between atoms: _107  and  _108
REMARK   46  A    between atoms: _110  and  _112
REMARK   47  A    between atoms: _112  and  _113
REMARK   48  A    between atoms: _112  and  _115
REMARK   49  A    between atoms: _115  and  _116
REMARK   50  A    between atoms: _118  and  _120
REMARK   51  A    between atoms: _120  and  _121
REMARK   52  A    between atoms: _120  and  _123
REMARK   53  A    between atoms: _123  and  _124
REMARK   54  A    between atoms: _126  and  _128
REMARK   55  A    between atoms: _128  and  _129
REMARK   56  A    between atoms: _128  and  _131
REMARK   57  A    between atoms: _131  and  _132
REMARK   58  A    between atoms: _135  and  _137
REMARK   59  A    between atoms: _137  and  _138
REMARK   60  A    between atoms: _137  and  _140
REMARK   61  A    between atoms: _140  and  _141
REMARK   62  A    between atoms: _151  and  _153
REMARK   63  A    between atoms: _153  and  _154
REMARK   64  A    between atoms: _153  and  _156
REMARK   65  A    between atoms: _156  and  _157
REMARK   66  A    between atoms: _159  and  _161
REMARK   67  A    between atoms: _161  and  _162
REMARK   68  A    between atoms: _161  and  _164
REMARK   69  A    between atoms: _164  and  _165
REMARK   70  A    between atoms: _168  and  _170
REMARK   71  A    between atoms: _170  and  _171
REMARK   72  A    between atoms: _170  and  _173
REMARK   73  A    between atoms: _173  and  _174
REMARK   74  A    between atoms: _176  and  _178
REMARK   75  A    between atoms: _178  and  _179
REMARK   76  A    between atoms: _178  and  _181
REMARK   77  A    between atoms: _181  and  _182
REMARK   78  A    between atoms: _187  and  _188
REMARK   79  A    between atoms: _190  and  _192
REMARK   80  A    between atoms: _192  and  _193
REMARK   81  A    between atoms: _195  and  _197
REMARK   82  A    between atoms: _197  and  _198
REMARK   83  A    between atoms: _197  and  _200
REMARK   84  A    between atoms: _200  and  _201
REMARK   85  A    between atoms: _204  and  _206
REMARK   86  A    between atoms: _206  and  _207
REMARK   87  A    between atoms: _209  and  _211
REMARK   88  A    between atoms: _211  and  _212
REMARK   89  A    between atoms: _211  and  _214
REMARK   90  A    between atoms: _214  and  _215
REMARK   91  A    between atoms: _217  and  _219
REMARK   92  A    between atoms: _219  and  _220
REMARK   93  A    between atoms: _219  and  _222
REMARK   94  A    between atoms: _222  and  _223
REMARK   95  A    between atoms: _225  and  _227
REMARK   96  A    between atoms: _227  and  _228
REMARK   97  A    between atoms: _227  and  _230
REMARK   98  A    between atoms: _230  and  _231
REMARK   99  A    between atoms: _233  and  _235
REMARK  100  A    between atoms: _235  and  _236
REMARK  101  A    between atoms: _235  and  _238
REMARK  102  A    between atoms: _238  and  _239
REMARK  103  A    between atoms: _241  and  _243
REMARK  104  A    between atoms: _243  and  _244
REMARK  105  A    between atoms: _243  and  _246
REMARK  106  A    between atoms: _246  and  _247
REMARK  107  A    between atoms: _249  and  _251
REMARK  108  A    between atoms: _251  and  _252
REMARK  109  A    between atoms: _251  and  _254
REMARK  110  A    between atoms: _254  and  _255
REMARK  111  A    between atoms: _261  and  _263
REMARK  112  A    between atoms: _263  and  _264
REMARK  113  A    between atoms: _263  and  _266
REMARK  114  A    between atoms: _266  and  _267
REMARK  115  A    between atoms: _270  and  _272
REMARK  116  A    between atoms: _272  and  _273
REMARK  117  A    between atoms: _272  and  _275
REMARK  118  A    between atoms: _275  and  _276
REMARK  119  A    between atoms: _279  and  _281
REMARK  120  A    between atoms: _281  and  _282
REMARK  121  A    between atoms: _281  and  _284
REMARK  122  A    between atoms: _284  and  _285
REMARK  123  A    between atoms: _288  and  _290
REMARK  124  A    between atoms: _290  and  _291
REMARK  125  A    between atoms: _293  and  _295
REMARK  126  A    between atoms: _295  and  _296
REMARK  127  A    between atoms: _295  and  _298
REMARK  128  A    between atoms: _298  and  _299
REMARK  129  A    between atoms: _302  and  _304
REMARK  130  A    between atoms: _304  and  _305
REMARK  131  A    between atoms: _304  and  _307
REMARK  132  A    between atoms: _307  and  _308
REMARK  133  A    between atoms: _311  and  _313
REMARK  134  A    between atoms: _313  and  _314
REMARK  135  A    between atoms: _316  and  _318
REMARK  136  A    between atoms: _318  and  _319
REMARK  137  A    between atoms: _318  and  _321
REMARK  138  A    between atoms: _321  and  _322
REMARK  139  A    between atoms: _325  and  _327
REMARK  140  A    between atoms: _327  and  _328
REMARK  141  A    between atoms: _331  and  _333
REMARK  142  A    between atoms: _333  and  _334
REMARK  143  A    between atoms: _333  and  _336
REMARK  144  A    between atoms: _336  and  _337
REMARK  145  A    between atoms: _343  and  _345
REMARK  146  A    between atoms: _345  and  _346
REMARK  147  A    between atoms: _345  and  _348
REMARK  148  A    between atoms: _348  and  _349
REMARK  149  A    between atoms: _352  and  _354
REMARK  150  A    between atoms: _354  and  _355
REMARK  151  A    between atoms: _354  and  _357
REMARK  152  A    between atoms: _357  and  _358
REMARK  153  A    between atoms: _363  and  _365
REMARK  154  A    between atoms: _365  and  _366
REMARK  155  A    between atoms: _365  and  _368
REMARK  156  A    between atoms: _368  and  _369
REMARK  157  A    between atoms: _372  and  _374
REMARK  158  A    between atoms: _374  and  _375
REMARK  159  A    between atoms: _374  and  _377
REMARK  160  A    between atoms: _377  and  _378
REMARK  161  A    between atoms: _378  and  _379
REMARK  162  A    between atoms: _384  and  _386
REMARK  163  A    between atoms: _386  and  _387
REMARK  164  A    between atoms: _389  and  _391
REMARK  165  A    between atoms: _391  and  _392
REMARK  166  A    between atoms: _391  and  _394
REMARK  167  A    between atoms: _394  and  _395
REMARK  168  A    between atoms: _401  and  _403
REMARK  169  A    between atoms: _403  and  _404
REMARK  170  A    between atoms: _403  and  _406
REMARK  171  A    between atoms: _406  and  _407
REMARK  172  A    between atoms: _417  and  _419
REMARK  173  A    between atoms: _419  and  _420
REMARK  174  A    between atoms: _419  and  _422
REMARK  175  A    between atoms: _422  and  _423
REMARK  176  A    between atoms: _426  and  _428
REMARK  177  A    between atoms: _428  and  _429
REMARK  178  A    between atoms: _432  and  _434
REMARK  179  A    between atoms: _434  and  _435
REMARK  180  A    between atoms: _434  and  _437
REMARK  181  A    between atoms: _437  and  _438
REMARK  182  A    between atoms: _441  and  _443
REMARK  183  A    between atoms: _443  and  _444
REMARK  184  A    between atoms: _443  and  _446
REMARK  185  A    between atoms: _446  and  _447
REMARK  186  A    between atoms: _450  and  _452
REMARK  187  A    between atoms: _452  and  _453
REMARK  188  A    between atoms: _455  and  _457
REMARK  189  A    between atoms: _457  and  _458
REMARK  190  A    between atoms: _457  and  _460
REMARK  191  A    between atoms: _460  and  _461
REMARK  192  A    between atoms: _464  and  _466
REMARK  193  A    between atoms: _466  and  _467
REMARK  194  A    between atoms: _466  and  _469
REMARK  195  A    between atoms: _469  and  _470
REMARK  196  A    between atoms: _473  and  _475
REMARK  197  A    between atoms: _475  and  _476
REMARK  198  A    between atoms: _475  and  _478
REMARK  199  A    between atoms: _478  and  _479
REMARK  200  A    between atoms: _482  and  _484
REMARK  201  A    between atoms: _484  and  _485
REMARK  202  A    between atoms: _484  and  _487
REMARK  203  A    between atoms: _487  and  _488
REMARK  204  A    between atoms: _491  and  _493
REMARK  205  A    between atoms: _493  and  _494
REMARK  206  A    between atoms: _493  and  _496
REMARK  207  A    between atoms: _496  and  _497
REMARK  208  A    between atoms: _502  and  _503
REMARK  209  A    between atoms: _505  and  _507
REMARK  210  A    between atoms: _507  and  _508
REMARK  211  A    between atoms: _507  and  _510
REMARK  212  A    between atoms: _510  and  _511
REMARK  213  A    between atoms: _517  and  _519
REMARK  214  A    between atoms: _519  and  _520
REMARK  215  A    between atoms: _519  and  _522
REMARK  216  A    between atoms: _522  and  _523
REMARK  217  A    between atoms: _526  and  _528
REMARK  218  A    between atoms: _528  and  _529
REMARK  219  A    between atoms: _531  and  _533
REMARK  220  A    between atoms: _533  and  _534
REMARK  221  A    between atoms: _533  and  _536
REMARK  222  A    between atoms: _536  and  _537
REMARK  223  A    between atoms: _540  and  _542
REMARK  224  A    between atoms: _542  and  _543
REMARK  225  A    between atoms: _542  and  _545
REMARK  226  A    between atoms: _545  and  _546
REMARK  227  A    between atoms: _551  and  _553
REMARK  228  A    between atoms: _553  and  _554
REMARK  229  A    between atoms: _553  and  _556
REMARK  230  A    between atoms: _556  and  _557
REMARK  231  A    between atoms: _560  and  _562
REMARK  232  A    between atoms: _562  and  _563
REMARK  233  A    between atoms: _562  and  _565
REMARK  234  A    between atoms: _565  and  _566
REMARK  235  A    between atoms: _572  and  _574
REMARK  236  A    between atoms: _574  and  _575
REMARK  237  A    between atoms: _577  and  _579
REMARK  238  A    between atoms: _579  and  _580
REMARK  239  A    between atoms: _579  and  _582
REMARK  240  A    between atoms: _582  and  _583
REMARK  241  A    between atoms: _586  and  _588
REMARK  242  A    between atoms: _588  and  _589
REMARK  243  A    between atoms: _588  and  _591
REMARK                            x       y       z     vdW  Elec       q    Type
REMARK                         _______ _______ _______ _____ _____    ______ ____
ROOT
ATOM      1  O   HOH     1     -11.226   1.322  -1.047  0.00  0.00    +0.000 OA
ENDROOT
TORSDOF 0
REMARK  Name = ../refined-set-2016/3pww/3pww_pocket.pdb
REMARK  243 active torsions:
REMARK  status: ('A' for Active; 'I' for Inactive)
REMARK    1  A    between atoms: _1  and  _3
REMARK    2  A    between atoms: _3  and  _4
REMARK    3  A    between atoms: _3  and  _6
REMARK    4  A    between atoms: _6  and  _7
REMARK    5  A    between atoms: _10  and  _12
REMARK    6  A    between atoms: _12  and  _13
REMARK    7  A    between atoms: _12  and  _15
REMARK    8  A    between atoms: _15  and  _16
REMARK    9  A    between atoms: _19  and  _21
REMARK   10  A    between atoms: _21  and  _22
REMARK   11  A    between atoms: _21  and  _24
REMARK   12  A    between atoms: _24  and  _25
REMARK   13  A    between atoms: _28  and  _30
REMARK   14  A    between atoms: _30  and  _31
REMARK   15  A    between atoms: _30  and  _33
REMARK   16  A    between atoms: _33  and  _34
REMARK   17  A    between atoms: _37  and  _39
REMARK   18  A    between atoms: _39  and  _40
REMARK   19  A    between atoms: _39  and  _42
REMARK   20  A    between atoms: _42  and  _43
REMARK   21  A    between atoms: _46  and  _48
REMARK   22  A    between atoms: _48  and  _49
REMARK   23  A    between atoms: _52  and  _54
REMARK   24  A    between atoms: _54  and  _55
REMARK   25  A    between atoms: _54  and  _57
REMARK   26  A    between atoms: _57  and  _58
REMARK   27  A    between atoms: _63  and  _64
REMARK   28  A    between atoms: _66  and  _68
REMARK   29  A    between atoms: _68  and  _69
REMARK   30  A    between atoms: _68  and  _71
REMARK   31  A    between atoms: _71  and  _72
REMARK   32  A    between atoms: _75  and  _77
REMARK   33  A    between atoms: _77  and  _78
REMARK   34  A    between atoms: _77  and  _80
REMARK   35  A    between atoms: _80  and  _81
REMARK   36  A    between atoms: _87  and  _89
REMARK   37  A    between atoms: _89  and  _90
REMARK   38  A    between atoms: _89  and  _92
REMARK   39  A    between atoms: _92  and  _93
REMARK   40  A    between atoms: _96  and  _98
REMARK   41  A    between atoms: _98  and  _99
REMARK   42  A    between atoms: _98  and  _101
REMARK   43  A    between atoms: _101  and  _102
REMARK   44  A    between atoms: _105  and  _107
REMARK   45  A    between atoms: _107  and  _108
REMARK   46  A    between atoms: _110  and  _112
REMARK   47  A    between atoms: _112  and  _113
REMARK   48  A    between atoms: _112  and  _115
REMARK   49  A    between atoms: _115  and  _116
REMARK   50  A    between atoms: _118  and  _120
REMARK   51  A    between atoms: _120  and  _121
REMARK   52  A    between atoms: _120  and  _123
REMARK   53  A    between atoms: _123  and  _124
REMARK   54  A    between atoms: _126  and  _128
REMARK   55  A    between atoms: _128  and  _129
REMARK   56  A    between atoms: _128  and  _131
REMARK   57  A    between atoms: _131  and  _132
REMARK   58  A    between atoms: _135  and  _137
REMARK   59  A    between atoms: _137  and  _138
REMARK   60  A    between atoms: _137  and  _140
REMARK   61  A    between atoms: _140  and  _141
REMARK   62  A    between atoms: _151  and  _153
REMARK   63  A    between atoms: _153  and  _154
REMARK   64  A    between atoms: _153  and  _156
REMARK   65  A    between atoms: _156  and  _157
REMARK   66  A    between atoms: _159  and  _161
REMARK   67  A    between atoms: _161  and  _162
REMARK   68  A    between atoms: _161  and  _164
REMARK   69  A    between atoms: _164  and  _165
REMARK   70  A    between atoms: _168  and  _170
REMARK   71  A    between atoms: _170  and  _171
REMARK   72  A    between atoms: _170  and  _173
REMARK   73  A    between atoms: _173  and  _174
REMARK   74  A    between atoms: _176  and  _178
REMARK   75  A    between atoms: _178  and  _179
REMARK   76  A    between atoms: _178  and  _181
REMARK   77  A    between atoms: _181  and  _182
REMARK   78  A    between atoms: _187  and  _188
REMARK   79  A    between atoms: _190  and  _192
REMARK   80  A    between atoms: _192  and  _193
REMARK   81  A    between atoms: _195  and  _197
REMARK   82  A    between atoms: _197  and  _198
REMARK   83  A    between atoms: _197  and  _200
REMARK   84  A    between atoms: _200  and  _201
REMARK   85  A    between atoms: _204  and  _206
REMARK   86  A    between atoms: _206  and  _207
REMARK   87  A    between atoms: _209  and  _211
REMARK   88  A    between atoms: _211  and  _212
REMARK   89  A    between atoms: _211  and  _214
REMARK   90  A    between atoms: _214  and  _215
REMARK   91  A    between atoms: _217  and  _219
REMARK   92  A    between atoms: _219  and  _220
REMARK   93  A    between atoms: _219  and  _222
REMARK   94  A    between atoms: _222  and  _223
REMARK   95  A    between atoms: _225  and  _227
REMARK   96  A    between atoms: _227  and  _228
REMARK   97  A    between atoms: _227  and  _230
REMARK   98  A    between atoms: _230  and  _231
REMARK   99  A    between atoms: _233  and  _235
REMARK  100  A    between atoms: _235  and  _236
REMARK  101  A    between atoms: _235  and  _238
REMARK  102  A    between atoms: _238  and  _239
REMARK  103  A    between atoms: _241  and  _243
REMARK  104  A    between atoms: _243  and  _244
REMARK  105  A    between atoms: _243  and  _246
REMARK  106  A    between atoms: _246  and  _247
REMARK  107  A    between atoms: _249  and  _251
REMARK  108  A    between atoms: _251  and  _252
REMARK  109  A    between atoms: _251  and  _254
REMARK  110  A    between atoms: _254  and  _255
REMARK  111  A    between atoms: _261  and  _263
REMARK  112  A    between atoms: _263  and  _264
REMARK  113  A    between atoms: _263  and  _266
REMARK  114  A    between atoms: _266  and  _267
REMARK  115  A    between atoms: _270  and  _272
REMARK  116  A    between atoms: _272  and  _273
REMARK  117  A    between atoms: _272  and  _275
REMARK  118  A    between atoms: _275  and  _276
REMARK  119  A    between atoms: _279  and  _281
REMARK  120  A    between atoms: _281  and  _282
REMARK  121  A    between atoms: _281  and  _284
REMARK  122  A    between atoms: _284  and  _285
REMARK  123  A    between atoms: _288  and  _290
REMARK  124  A    between atoms: _290  and  _291
REMARK  125  A    between atoms: _293  and  _295
REMARK  126  A    between atoms: _295  and  _296
REMARK  127  A    between atoms: _295  and  _298
REMARK  128  A    between atoms: _298  and  _299
REMARK  129  A    between atoms: _302  and  _304
REMARK  130  A    between atoms: _304  and  _305
REMARK  131  A    between atoms: _304  and  _307
REMARK  132  A    between atoms: _307  and  _308
REMARK  133  A    between atoms: _311  and  _313
REMARK  134  A    between atoms: _313  and  _314
REMARK  135  A    between atoms: _316  and  _318
REMARK  136  A    between atoms: _318  and  _319
REMARK  137  A    between atoms: _318  and  _321
REMARK  138  A    between atoms: _321  and  _322
REMARK  139  A    between atoms: _325  and  _327
REMARK  140  A    between atoms: _327  and  _328
REMARK  141  A    between atoms: _331  and  _333
REMARK  142  A    between atoms: _333  and  _334
REMARK  143  A    between atoms: _333  and  _336
REMARK  144  A    between atoms: _336  and  _337
REMARK  145  A    between atoms: _343  and  _345
REMARK  146  A    between atoms: _345  and  _346
REMARK  147  A    between atoms: _345  and  _348
REMARK  148  A    between atoms: _348  and  _349
REMARK  149  A    between atoms: _352  and  _354
REMARK  150  A    between atoms: _354  and  _355
REMARK  151  A    between atoms: _354  and  _357
REMARK  152  A    between atoms: _357  and  _358
REMARK  153  A    between atoms: _363  and  _365
REMARK  154  A    between atoms: _365  and  _366
REMARK  155  A    between atoms: _365  and  _368
REMARK  156  A    between atoms: _368  and  _369
REMARK  157  A    between atoms: _372  and  _374
REMARK  158  A    between atoms: _374  and  _375
REMARK  159  A    between atoms: _374  and  _377
REMARK  160  A    between atoms: _377  and  _378
REMARK  161  A    between atoms: _378  and  _379
REMARK  162  A    between atoms: _384  and  _386
REMARK  163  A    between atoms: _386  and  _387
REMARK  164  A    between atoms: _389  and  _391
REMARK  165  A    between atoms: _391  and  _392
REMARK  166  A    between atoms: _391  and  _394
REMARK  167  A    between atoms: _394  and  _395
REMARK  168  A    between atoms: _401  and  _403
REMARK  169  A    between atoms: _403  and  _404
REMARK  170  A    between atoms: _403  and  _406
REMARK  171  A    between atoms: _406  and  _407
REMARK  172  A    between atoms: _417  and  _419
REMARK  173  A    between atoms: _419  and  _420
REMARK  174  A    between atoms: _419  and  _422
REMARK  175  A    between atoms: _422  and  _423
REMARK  176  A    between atoms: _426  and  _428
REMARK  177  A    between atoms: _428  and  _429
REMARK  178  A    between atoms: _432  and  _434
REMARK  179  A    between atoms: _434  and  _435
REMARK  180  A    between atoms: _434  and  _437
REMARK  181  A    between atoms: _437  and  _438
REMARK  182  A    between atoms: _441  and  _443
REMARK  183  A    between atoms: _443  and  _444
REMARK  184  A    between atoms: _443  and  _446
REMARK  185  A    between atoms: _446  and  _447
REMARK  186  A    between atoms: _450  and  _452
REMARK  187  A    between atoms: _452  and  _453
REMARK  188  A    between atoms: _455  and  _457
REMARK  189  A    between atoms: _457  and  _458
REMARK  190  A    between atoms: _457  and  _460
REMARK  191  A    between atoms: _460  and  _461
REMARK  192  A    between atoms: _464  and  _466
REMARK  193  A    between atoms: _466  and  _467
REMARK  194  A    between atoms: _466  and  _469
REMARK  195  A    between atoms: _469  and  _470
REMARK  196  A    between atoms: _473  and  _475
REMARK  197  A    between atoms: _475  and  _476
REMARK  198  A    between atoms: _475  and  _478
REMARK  199  A    between atoms: _478  and  _479
REMARK  200  A    between atoms: _482  and  _484
REMARK  201  A    between atoms: _484  and  _485
REMARK  202  A    between atoms: _484  and  _487
REMARK  203  A    between atoms: _487  and  _488
REMARK  204  A    between atoms: _491  and  _493
REMARK  205  A    between atoms: _493  and  _494
REMARK  206  A    between atoms: _493  and  _496
REMARK  207  A    between atoms: _496  and  _497
REMARK  208  A    between atoms: _502  and  _503
REMARK  209  A    between atoms: _505  and  _507
REMARK  210  A    between atoms: _507  and  _508
REMARK  211  A    between atoms: _507  and  _510
REMARK  212  A    between atoms: _510  and  _511
REMARK  213  A    between atoms: _517  and  _519
REMARK  214  A    between atoms: _519  and  _520
REMARK  215  A    between atoms: _519  and  _522
REMARK  216  A    between atoms: _522  and  _523
REMARK  217  A    between atoms: _526  and  _528
REMARK  218  A    between atoms: _528  and  _529
REMARK  219  A    between atoms: _531  and  _533
REMARK  220  A    between atoms: _533  and  _534
REMARK  221  A    between atoms: _533  and  _536
REMARK  222  A    between atoms: _536  and  _537
REMARK  223  A    between atoms: _540  and  _542
REMARK  224  A    between atoms: _542  and  _543
REMARK  225  A    between atoms: _542  and  _545
REMARK  226  A    between atoms: _545  and  _546
REMARK  227  A    between atoms: _551  and  _553
REMARK  228  A    between atoms: _553  and  _554
REMARK  229  A    between atoms: _553  and  _556
REMARK  230  A    between atoms: _556  and  _557
REMARK  231  A    between atoms: _560  and  _562
REMARK  232  A    between atoms: _562  and  _563
REMARK  233  A    between atoms: _562  and  _565
REMARK  234  A    between atoms: _565  and  _566
REMARK  235  A    between atoms: _572  and  _574
REMARK  236  A    between atoms: _574  and  _575
REMARK  237  A    between atoms: _577  and  _579
REMARK  238  A    between atoms: _579  and  _580
REMARK  239  A    between atoms: _579  and  _582
REMARK  240  A    between atoms: _582  and  _583
REMARK  241  A    between atoms: _586  and  _588
REMARK  242  A    between atoms: _588  and  _589
REMARK  243  A    between atoms: _588  and  _591
REMARK                            x       y       z     vdW  Elec       q    Type
REMARK                         _______ _______ _______ _____ _____    ______ ____
ROOT
ATOM      1  O   HOH     1      -1.544   7.675   6.700  0.00  0.00    +0.000 OA
ENDROOT
TORSDOF 0
REMARK  Name = ../refined-set-2016/3pww/3pww_pocket.pdb
REMARK  243 active torsions:
REMARK  status: ('A' for Active; 'I' for Inactive)
REMARK    1  A    between atoms: _1  and  _3
REMARK    2  A    between atoms: _3  and  _4
REMARK    3  A    between atoms: _3  and  _6
REMARK    4  A    between atoms: _6  and  _7
REMARK    5  A    between atoms: _10  and  _12
REMARK    6  A    between atoms: _12  and  _13
REMARK    7  A    between atoms: _12  and  _15
REMARK    8  A    between atoms: _15  and  _16
REMARK    9  A    between atoms: _19  and  _21
REMARK   10  A    between atoms: _21  and  _22
REMARK   11  A    between atoms: _21  and  _24
REMARK   12  A    between atoms: _24  and  _25
REMARK   13  A    between atoms: _28  and  _30
REMARK   14  A    between atoms: _30  and  _31
REMARK   15  A    between atoms: _30  and  _33
REMARK   16  A    between atoms: _33  and  _34
REMARK   17  A    between atoms: _37  and  _39
REMARK   18  A    between atoms: _39  and  _40
REMARK   19  A    between atoms: _39  and  _42
REMARK   20  A    between atoms: _42  and  _43
REMARK   21  A    between atoms: _46  and  _48
REMARK   22  A    between atoms: _48  and  _49
REMARK   23  A    between atoms: _52  and  _54
REMARK   24  A    between atoms: _54  and  _55
REMARK   25  A    between atoms: _54  and  _57
REMARK   26  A    between atoms: _57  and  _58
REMARK   27  A    between atoms: _63  and  _64
REMARK   28  A    between atoms: _66  and  _68
REMARK   29  A    between atoms: _68  and  _69
REMARK   30  A    between atoms: _68  and  _71
REMARK   31  A    between atoms: _71  and  _72
REMARK   32  A    between atoms: _75  and  _77
REMARK   33  A    between atoms: _77  and  _78
REMARK   34  A    between atoms: _77  and  _80
REMARK   35  A    between atoms: _80  and  _81
REMARK   36  A    between atoms: _87  and  _89
REMARK   37  A    between atoms: _89  and  _90
REMARK   38  A    between atoms: _89  and  _92
REMARK   39  A    between atoms: _92  and  _93
REMARK   40  A    between atoms: _96  and  _98
REMARK   41  A    between atoms: _98  and  _99
REMARK   42  A    between atoms: _98  and  _101
REMARK   43  A    between atoms: _101  and  _102
REMARK   44  A    between atoms: _105  and  _107
REMARK   45  A    between atoms: _107  and  _108
REMARK   46  A    between atoms: _110  and  _112
REMARK   47  A    between atoms: _112  and  _113
REMARK   48  A    between atoms: _112  and  _115
REMARK   49  A    between atoms: _115  and  _116
REMARK   50  A    between atoms: _118  and  _120
REMARK   51  A    between atoms: _120  and  _121
REMARK   52  A    between atoms: _120  and  _123
REMARK   53  A    between atoms: _123  and  _124
REMARK   54  A    between atoms: _126  and  _128
REMARK   55  A    between atoms: _128  and  _129
REMARK   56  A    between atoms: _128  and  _131
REMARK   57  A    between atoms: _131  and  _132
REMARK   58  A    between atoms: _135  and  _137
REMARK   59  A    between atoms: _137  and  _138
REMARK   60  A    between atoms: _137  and  _140
REMARK   61  A    between atoms: _140  and  _141
REMARK   62  A    between atoms: _151  and  _153
REMARK   63  A    between atoms: _153  and  _154
REMARK   64  A    between atoms: _153  and  _156
REMARK   65  A    between atoms: _156  and  _157
REMARK   66  A    between atoms: _159  and  _161
REMARK   67  A    between atoms: _161  and  _162
REMARK   68  A    between atoms: _161  and  _164
REMARK   69  A    between atoms: _164  and  _165
REMARK   70  A    between atoms: _168  and  _170
REMARK   71  A    between atoms: _170  and  _171
REMARK   72  A    between atoms: _170  and  _173
REMARK   73  A    between atoms: _173  and  _174
REMARK   74  A    between atoms: _176  and  _178
REMARK   75  A    between atoms: _178  and  _179
REMARK   76  A    between atoms: _178  and  _181
REMARK   77  A    between atoms: _181  and  _182
REMARK   78  A    between atoms: _187  and  _188
REMARK   79  A    between atoms: _190  and  _192
REMARK   80  A    between atoms: _192  and  _193
REMARK   81  A    between atoms: _195  and  _197
REMARK   82  A    between atoms: _197  and  _198
REMARK   83  A    between atoms: _197  and  _200
REMARK   84  A    between atoms: _200  and  _201
REMARK   85  A    between atoms: _204  and  _206
REMARK   86  A    between atoms: _206  and  _207
REMARK   87  A    between atoms: _209  and  _211
REMARK   88  A    between atoms: _211  and  _212
REMARK   89  A    between atoms: _211  and  _214
REMARK   90  A    between atoms: _214  and  _215
REMARK   91  A    between atoms: _217  and  _219
REMARK   92  A    between atoms: _219  and  _220
REMARK   93  A    between atoms: _219  and  _222
REMARK   94  A    between atoms: _222  and  _223
REMARK   95  A    between atoms: _225  and  _227
REMARK   96  A    between atoms: _227  and  _228
REMARK   97  A    between atoms: _227  and  _230
REMARK   98  A    between atoms: _230  and  _231
REMARK   99  A    between atoms: _233  and  _235
REMARK  100  A    between atoms: _235  and  _236
REMARK  101  A    between atoms: _235  and  _238
REMARK  102  A    between atoms: _238  and  _239
REMARK  103  A    between atoms: _241  and  _243
REMARK  104  A    between atoms: _243  and  _244
REMARK  105  A    between atoms: _243  and  _246
REMARK  106  A    between atoms: _246  and  _247
REMARK  107  A    between atoms: _249  and  _251
REMARK  108  A    between atoms: _251  and  _252
REMARK  109  A    between atoms: _251  and  _254
REMARK  110  A    between atoms: _254  and  _255
REMARK  111  A    between atoms: _261  and  _263
REMARK  112  A    between atoms: _263  and  _264
REMARK  113  A    between atoms: _263  and  _266
REMARK  114  A    between atoms: _266  and  _267
REMARK  115  A    between atoms: _270  and  _272
REMARK  116  A    between atoms: _272  and  _273
REMARK  117  A    between atoms: _272  and  _275
REMARK  118  A    between atoms: _275  and  _276
REMARK  119  A    between atoms: _279  and  _281
REMARK  120  A    between atoms: _281  and  _282
REMARK  121  A    between atoms: _281  and  _284
REMARK  122  A    between atoms: _284  and  _285
REMARK  123  A    between atoms: _288  and  _290
REMARK  124  A    between atoms: _290  and  _291
REMARK  125  A    between atoms: _293  and  _295
REMARK  126  A    between atoms: _295  and  _296
REMARK  127  A    between atoms: _295  and  _298
REMARK  128  A    between atoms: _298  and  _299
REMARK  129  A    between atoms: _302  and  _304
REMARK  130  A    between atoms: _304  and  _305
REMARK  131  A    between atoms: _304  and  _307
REMARK  132  A    between atoms: _307  and  _308
REMARK  133  A    between atoms: _311  and  _313
REMARK  134  A    between atoms: _313  and  _314
REMARK  135  A    between atoms: _316  and  _318
REMARK  136  A    between atoms: _318  and  _319
REMARK  137  A    between atoms: _318  and  _321
REMARK  138  A    between atoms: _321  and  _322
REMARK  139  A    between atoms: _325  and  _327
REMARK  140  A    between atoms: _327  and  _328
REMARK  141  A    between atoms: _331  and  _333
REMARK  142  A    between atoms: _333  and  _334
REMARK  143  A    between atoms: _333  and  _336
REMARK  144  A    between atoms: _336  and  _337
REMARK  145  A    between atoms: _343  and  _345
REMARK  146  A    between atoms: _345  and  _346
REMARK  147  A    between atoms: _345  and  _348
REMARK  148  A    between atoms: _348  and  _349
REMARK  149  A    between atoms: _352  and  _354
REMARK  150  A    between atoms: _354  and  _355
REMARK  151  A    between atoms: _354  and  _357
REMARK  152  A    between atoms: _357  and  _358
REMARK  153  A    between atoms: _363  and  _365
REMARK  154  A    between atoms: _365  and  _366
REMARK  155  A    between atoms: _365  and  _368
REMARK  156  A    between atoms: _368  and  _369
REMARK  157  A    between atoms: _372  and  _374
REMARK  158  A    between atoms: _374  and  _375
REMARK  159  A    between atoms: _374  and  _377
REMARK  160  A    between atoms: _377  and  _378
REMARK  161  A    between atoms: _378  and  _379
REMARK  162  A    between atoms: _384  and  _386
REMARK  163  A    between atoms: _386  and  _387
REMARK  164  A    between atoms: _389  and  _391
REMARK  165  A    between atoms: _391  and  _392
REMARK  166  A    between atoms: _391  and  _394
REMARK  167  A    between atoms: _394  and  _395
REMARK  168  A    between atoms: _401  and  _403
REMARK  169  A    between atoms: _403  and  _404
REMARK  170  A    between atoms: _403  and  _406
REMARK  171  A    between atoms: _406  and  _407
REMARK  172  A    between atoms: _417  and  _419
REMARK  173  A    between atoms: _419  and  _420
REMARK  174  A    between atoms: _419  and  _422
REMARK  175  A    between atoms: _422  and  _423
REMARK  176  A    between atoms: _426  and  _428
REMARK  177  A    between atoms: _428  and  _429
REMARK  178  A    between atoms: _432  and  _434
REMARK  179  A    between atoms: _434  and  _435
REMARK  180  A    between atoms: _434  and  _437
REMARK  181  A    between atoms: _437  and  _438
REMARK  182  A    between atoms: _441  and  _443
REMARK  183  A    between atoms: _443  and  _444
REMARK  184  A    between atoms: _443  and  _446
REMARK  185  A    between atoms: _446  and  _447
REMARK  186  A    between atoms: _450  and  _452
REMARK  187  A    between atoms: _452  and  _453
REMARK  188  A    between atoms: _455  and  _457
REMARK  189  A    between atoms: _457  and  _458
REMARK  190  A    between atoms: _457  and  _460
REMARK  191  A    between atoms: _460  and  _461
REMARK  192  A    between atoms: _464  and  _466
REMARK  193  A    between atoms: _466  and  _467
REMARK  194  A    between atoms: _466  and  _469
REMARK  195  A    between atoms: _469  and  _470
REMARK  196  A    between atoms: _473  and  _475
REMARK  197  A    between atoms: _475  and  _476
REMARK  198  A    between atoms: _475  and  _478
REMARK  199  A    between atoms: _478  and  _479
REMARK  200  A    between atoms: _482  and  _484
REMARK  201  A    between atoms: _484  and  _485
REMARK  202  A    between atoms: _484  and  _487
REMARK  203  A    between atoms: _487  and  _488
REMARK  204  A    between atoms: _491  and  _493
REMARK  205  A    between atoms: _493  and  _494
REMARK  206  A    between atoms: _493  and  _496
REMARK  207  A    between atoms: _496  and  _497
REMARK  208  A    between atoms: _502  and  _503
REMARK  209  A    between atoms: _505  and  _507
REMARK  210  A    between atoms: _507  and  _508
REMARK  211  A    between atoms: _507  and  _510
REMARK  212  A    between atoms: _510  and  _511
REMARK  213  A    between atoms: _517  and  _519
REMARK  214  A    between atoms: _519  and  _520
REMARK  215  A    between atoms: _519  and  _522
REMARK  216  A    between atoms: _522  and  _523
REMARK  217  A    between atoms: _526  and  _528
REMARK  218  A    between atoms: _528  and  _529
REMARK  219  A    between atoms: _531  and  _533
REMARK  220  A    between atoms: _533  and  _534
REMARK  221  A    between atoms: _533  and  _536
REMARK  222  A    between atoms: _536  and  _537
REMARK  223  A    between atoms: _540  and  _542
REMARK  224  A    between atoms: _542  and  _543
REMARK  225  A    between atoms: _542  and  _545
REMARK  226  A    between atoms: _545  and  _546
REMARK  227  A    between atoms: _551  and  _553
REMARK  228  A    between atoms: _553  and  _554
REMARK  229  A    between atoms: _553  and  _556
REMARK  230  A    between atoms: _556  and  _557
REMARK  231  A    between atoms: _560  and  _562
REMARK  232  A    between atoms: _562  and  _563
REMARK  233  A    between atoms: _562  and  _565
REMARK  234  A    between atoms: _565  and  _566
REMARK  235  A    between atoms: _572  and  _574
REMARK  236  A    between atoms: _574  and  _575
REMARK  237  A    between atoms: _577  and  _579
REMARK  238  A    between atoms: _579  and  _580
REMARK  239  A    between atoms: _579  and  _582
REMARK  240  A    between atoms: _582  and  _583
REMARK  241  A    between atoms: _586  and  _588
REMARK  242  A    between atoms: _588  and  _589
REMARK  243  A    between atoms: _588  and  _591
REMARK                            x       y       z     vdW  Elec       q    Type
REMARK                         _______ _______ _______ _____ _____    ______ ____
ROOT
ATOM      1  O   HOH     1      -8.175  10.656   0.381  0.00  0.00    +0.000 OA
ENDROOT
TORSDOF 0
REMARK  Name = ../refined-set-2016/3pww/3pww_pocket.pdb
REMARK  243 active torsions:
REMARK  status: ('A' for Active; 'I' for Inactive)
REMARK    1  A    between atoms: _1  and  _3
REMARK    2  A    between atoms: _3  and  _4
REMARK    3  A    between atoms: _3  and  _6
REMARK    4  A    between atoms: _6  and  _7
REMARK    5  A    between atoms: _10  and  _12
REMARK    6  A    between atoms: _12  and  _13
REMARK    7  A    between atoms: _12  and  _15
REMARK    8  A    between atoms: _15  and  _16
REMARK    9  A    between atoms: _19  and  _21
REMARK   10  A    between atoms: _21  and  _22
REMARK   11  A    between atoms: _21  and  _24
REMARK   12  A    between atoms: _24  and  _25
REMARK   13  A    between atoms: _28  and  _30
REMARK   14  A    between atoms: _30  and  _31
REMARK   15  A    between atoms: _30  and  _33
REMARK   16  A    between atoms: _33  and  _34
REMARK   17  A    between atoms: _37  and  _39
REMARK   18  A    between atoms: _39  and  _40
REMARK   19  A    between atoms: _39  and  _42
REMARK   20  A    between atoms: _42  and  _43
REMARK   21  A    between atoms: _46  and  _48
REMARK   22  A    between atoms: _48  and  _49
REMARK   23  A    between atoms: _52  and  _54
REMARK   24  A    between atoms: _54  and  _55
REMARK   25  A    between atoms: _54  and  _57
REMARK   26  A    between atoms: _57  and  _58
REMARK   27  A    between atoms: _63  and  _64
REMARK   28  A    between atoms: _66  and  _68
REMARK   29  A    between atoms: _68  and  _69
REMARK   30  A    between atoms: _68  and  _71
REMARK   31  A    between atoms: _71  and  _72
REMARK   32  A    between atoms: _75  and  _77
REMARK   33  A    between atoms: _77  and  _78
REMARK   34  A    between atoms: _77  and  _80
REMARK   35  A    between atoms: _80  and  _81
REMARK   36  A    between atoms: _87  and  _89
REMARK   37  A    between atoms: _89  and  _90
REMARK   38  A    between atoms: _89  and  _92
REMARK   39  A    between atoms: _92  and  _93
REMARK   40  A    between atoms: _96  and  _98
REMARK   41  A    between atoms: _98  and  _99
REMARK   42  A    between atoms: _98  and  _101
REMARK   43  A    between atoms: _101  and  _102
REMARK   44  A    between atoms: _105  and  _107
REMARK   45  A    between atoms: _107  and  _108
REMARK   46  A    between atoms: _110  and  _112
REMARK   47  A    between atoms: _112  and  _113
REMARK   48  A    between atoms: _112  and  _115
REMARK   49  A    between atoms: _115  and  _116
REMARK   50  A    between atoms: _118  and  _120
REMARK   51  A    between atoms: _120  and  _121
REMARK   52  A    between atoms: _120  and  _123
REMARK   53  A    between atoms: _123  and  _124
REMARK   54  A    between atoms: _126  and  _128
REMARK   55  A    between atoms: _128  and  _129
REMARK   56  A    between atoms: _128  and  _131
REMARK   57  A    between atoms: _131  and  _132
REMARK   58  A    between atoms: _135  and  _137
REMARK   59  A    between atoms: _137  and  _138
REMARK   60  A    between atoms: _137  and  _140
REMARK   61  A    between atoms: _140  and  _141
REMARK   62  A    between atoms: _151  and  _153
REMARK   63  A    between atoms: _153  and  _154
REMARK   64  A    between atoms: _153  and  _156
REMARK   65  A    between atoms: _156  and  _157
REMARK   66  A    between atoms: _159  and  _161
REMARK   67  A    between atoms: _161  and  _162
REMARK   68  A    between atoms: _161  and  _164
REMARK   69  A    between atoms: _164  and  _165
REMARK   70  A    between atoms: _168  and  _170
REMARK   71  A    between atoms: _170  and  _171
REMARK   72  A    between atoms: _170  and  _173
REMARK   73  A    between atoms: _173  and  _174
REMARK   74  A    between atoms: _176  and  _178
REMARK   75  A    between atoms: _178  and  _179
REMARK   76  A    between atoms: _178  and  _181
REMARK   77  A    between atoms: _181  and  _182
REMARK   78  A    between atoms: _187  and  _188
REMARK   79  A    between atoms: _190  and  _192
REMARK   80  A    between atoms: _192  and  _193
REMARK   81  A    between atoms: _195  and  _197
REMARK   82  A    between atoms: _197  and  _198
REMARK   83  A    between atoms: _197  and  _200
REMARK   84  A    between atoms: _200  and  _201
REMARK   85  A    between atoms: _204  and  _206
REMARK   86  A    between atoms: _206  and  _207
REMARK   87  A    between atoms: _209  and  _211
REMARK   88  A    between atoms: _211  and  _212
REMARK   89  A    between atoms: _211  and  _214
REMARK   90  A    between atoms: _214  and  _215
REMARK   91  A    between atoms: _217  and  _219
REMARK   92  A    between atoms: _219  and  _220
REMARK   93  A    between atoms: _219  and  _222
REMARK   94  A    between atoms: _222  and  _223
REMARK   95  A    between atoms: _225  and  _227
REMARK   96  A    between atoms: _227  and  _228
REMARK   97  A    between atoms: _227  and  _230
REMARK   98  A    between atoms: _230  and  _231
REMARK   99  A    between atoms: _233  and  _235
REMARK  100  A    between atoms: _235  and  _236
REMARK  101  A    between atoms: _235  and  _238
REMARK  102  A    between atoms: _238  and  _239
REMARK  103  A    between atoms: _241  and  _243
REMARK  104  A    between atoms: _243  and  _244
REMARK  105  A    between atoms: _243  and  _246
REMARK  106  A    between atoms: _246  and  _247
REMARK  107  A    between atoms: _249  and  _251
REMARK  108  A    between atoms: _251  and  _252
REMARK  109  A    between atoms: _251  and  _254
REMARK  110  A    between atoms: _254  and  _255
REMARK  111  A    between atoms: _261  and  _263
REMARK  112  A    between atoms: _263  and  _264
REMARK  113  A    between atoms: _263  and  _266
REMARK  114  A    between atoms: _266  and  _267
REMARK  115  A    between atoms: _270  and  _272
REMARK  116  A    between atoms: _272  and  _273
REMARK  117  A    between atoms: _272  and  _275
REMARK  118  A    between atoms: _275  and  _276
REMARK  119  A    between atoms: _279  and  _281
REMARK  120  A    between atoms: _281  and  _282
REMARK  121  A    between atoms: _281  and  _284
REMARK  122  A    between atoms: _284  and  _285
REMARK  123  A    between atoms: _288  and  _290
REMARK  124  A    between atoms: _290  and  _291
REMARK  125  A    between atoms: _293  and  _295
REMARK  126  A    between atoms: _295  and  _296
REMARK  127  A    between atoms: _295  and  _298
REMARK  128  A    between atoms: _298  and  _299
REMARK  129  A    between atoms: _302  and  _304
REMARK  130  A    between atoms: _304  and  _305
REMARK  131  A    between atoms: _304  and  _307
REMARK  132  A    between atoms: _307  and  _308
REMARK  133  A    between atoms: _311  and  _313
REMARK  134  A    between atoms: _313  and  _314
REMARK  135  A    between atoms: _316  and  _318
REMARK  136  A    between atoms: _318  and  _319
REMARK  137  A    between atoms: _318  and  _321
REMARK  138  A    between atoms: _321  and  _322
REMARK  139  A    between atoms: _325  and  _327
REMARK  140  A    between atoms: _327  and  _328
REMARK  141  A    between atoms: _331  and  _333
REMARK  142  A    between atoms: _333  and  _334
REMARK  143  A    between atoms: _333  and  _336
REMARK  144  A    between atoms: _336  and  _337
REMARK  145  A    between atoms: _343  and  _345
REMARK  146  A    between atoms: _345  and  _346
REMARK  147  A    between atoms: _345  and  _348
REMARK  148  A    between atoms: _348  and  _349
REMARK  149  A    between atoms: _352  and  _354
REMARK  150  A    between atoms: _354  and  _355
REMARK  151  A    between atoms: _354  and  _357
REMARK  152  A    between atoms: _357  and  _358
REMARK  153  A    between atoms: _363  and  _365
REMARK  154  A    between atoms: _365  and  _366
REMARK  155  A    between atoms: _365  and  _368
REMARK  156  A    between atoms: _368  and  _369
REMARK  157  A    between atoms: _372  and  _374
REMARK  158  A    between atoms: _374  and  _375
REMARK  159  A    between atoms: _374  and  _377
REMARK  160  A    between atoms: _377  and  _378
REMARK  161  A    between atoms: _378  and  _379
REMARK  162  A    between atoms: _384  and  _386
REMARK  163  A    between atoms: _386  and  _387
REMARK  164  A    between atoms: _389  and  _391
REMARK  165  A    between atoms: _391  and  _392
REMARK  166  A    between atoms: _391  and  _394
REMARK  167  A    between atoms: _394  and  _395
REMARK  168  A    between atoms: _401  and  _403
REMARK  169  A    between atoms: _403  and  _404
REMARK  170  A    between atoms: _403  and  _406
REMARK  171  A    between atoms: _406  and  _407
REMARK  172  A    between atoms: _417  and  _419
REMARK  173  A    between atoms: _419  and  _420
REMARK  174  A    between atoms: _419  and  _422
REMARK  175  A    between atoms: _422  and  _423
REMARK  176  A    between atoms: _426  and  _428
REMARK  177  A    between atoms: _428  and  _429
REMARK  178  A    between atoms: _432  and  _434
REMARK  179  A    between atoms: _434  and  _435
REMARK  180  A    between atoms: _434  and  _437
REMARK  181  A    between atoms: _437  and  _438
REMARK  182  A    between atoms: _441  and  _443
REMARK  183  A    between atoms: _443  and  _444
REMARK  184  A    between atoms: _443  and  _446
REMARK  185  A    between atoms: _446  and  _447
REMARK  186  A    between atoms: _450  and  _452
REMARK  187  A    between atoms: _452  and  _453
REMARK  188  A    between atoms: _455  and  _457
REMARK  189  A    between atoms: _457  and  _458
REMARK  190  A    between atoms: _457  and  _460
REMARK  191  A    between atoms: _460  and  _461
REMARK  192  A    between atoms: _464  and  _466
REMARK  193  A    between atoms: _466  and  _467
REMARK  194  A    between atoms: _466  and  _469
REMARK  195  A    between atoms: _469  and  _470
REMARK  196  A    between atoms: _473  and  _475
REMARK  197  A    between atoms: _475  and  _476
REMARK  198  A    between atoms: _475  and  _478
REMARK  199  A    between atoms: _478  and  _479
REMARK  200  A    between atoms: _482  and  _484
REMARK  201  A    between atoms: _484  and  _485
REMARK  202  A    between atoms: _484  and  _487
REMARK  203  A    between atoms: _487  and  _488
REMARK  204  A    between atoms: _491  and  _493
REMARK  205  A    between atoms: _493  and  _494
REMARK  206  A    between atoms: _493  and  _496
REMARK  207  A    between atoms: _496  and  _497
REMARK  208  A    between atoms: _502  and  _503
REMARK  209  A    between atoms: _505  and  _507
REMARK  210  A    between atoms: _507  and  _508
REMARK  211  A    between atoms: _507  and  _510
REMARK  212  A    between atoms: _510  and  _511
REMARK  213  A    between atoms: _517  and  _519
REMARK  214  A    between atoms: _519  and  _520
REMARK  215  A    between atoms: _519  and  _522
REMARK  216  A    between atoms: _522  and  _523
REMARK  217  A    between atoms: _526  and  _528
REMARK  218  A    between atoms: _528  and  _529
REMARK  219  A    between atoms: _531  and  _533
REMARK  220  A    between atoms: _533  and  _534
REMARK  221  A    between atoms: _533  and  _536
REMARK  222  A    between atoms: _536  and  _537
REMARK  223  A    between atoms: _540  and  _542
REMARK  224  A    between atoms: _542  and  _543
REMARK  225  A    between atoms: _542  and  _545
REMARK  226  A    between atoms: _545  and  _546
REMARK  227  A    between atoms: _551  and  _553
REMARK  228  A    between atoms: _553  and  _554
REMARK  229  A    between atoms: _553  and  _556
REMARK  230  A    between atoms: _556  and  _557
REMARK  231  A    between atoms: _560  and  _562
REMARK  232  A    between atoms: _562  and  _563
REMARK  233  A    between atoms: _562  and  _565
REMARK  234  A    between atoms: _565  and  _566
REMARK  235  A    between atoms: _572  and  _574
REMARK  236  A    between atoms: _574  and  _575
REMARK  237  A    between atoms: _577  and  _579
REMARK  238  A    between atoms: _579  and  _580
REMARK  239  A    between atoms: _579  and  _582
REMARK  240  A    between atoms: _582  and  _583
REMARK  241  A    between atoms: _586  and  _588
REMARK  242  A    between atoms: _588  and  _589
REMARK  243  A    between atoms: _588  and  _591
REMARK                            x       y       z     vdW  Elec       q    Type
REMARK                         _______ _______ _______ _____ _____    ______ ____
ROOT
ATOM      1  O   HOH     1      -6.217  -2.882  11.997  0.00  0.00    +0.000 OA
ENDROOT
TORSDOF 0
REMARK  Name = ../refined-set-2016/3pww/3pww_pocket.pdb
REMARK  243 active torsions:
REMARK  status: ('A' for Active; 'I' for Inactive)
REMARK    1  A    between atoms: _1  and  _3
REMARK    2  A    between atoms: _3  and  _4
REMARK    3  A    between atoms: _3  and  _6
REMARK    4  A    between atoms: _6  and  _7
REMARK    5  A    between atoms: _10  and  _12
REMARK    6  A    between atoms: _12  and  _13
REMARK    7  A    between atoms: _12  and  _15
REMARK    8  A    between atoms: _15  and  _16
REMARK    9  A    between atoms: _19  and  _21
REMARK   10  A    between atoms: _21  and  _22
REMARK   11  A    between atoms: _21  and  _24
REMARK   12  A    between atoms: _24  and  _25
REMARK   13  A    between atoms: _28  and  _30
REMARK   14  A    between atoms: _30  and  _31
REMARK   15  A    between atoms: _30  and  _33
REMARK   16  A    between atoms: _33  and  _34
REMARK   17  A    between atoms: _37  and  _39
REMARK   18  A    between atoms: _39  and  _40
REMARK   19  A    between atoms: _39  and  _42
REMARK   20  A    between atoms: _42  and  _43
REMARK   21  A    between atoms: _46  and  _48
REMARK   22  A    between atoms: _48  and  _49
REMARK   23  A    between atoms: _52  and  _54
REMARK   24  A    between atoms: _54  and  _55
REMARK   25  A    between atoms: _54  and  _57
REMARK   26  A    between atoms: _57  and  _58
REMARK   27  A    between atoms: _63  and  _64
REMARK   28  A    between atoms: _66  and  _68
REMARK   29  A    between atoms: _68  and  _69
REMARK   30  A    between atoms: _68  and  _71
REMARK   31  A    between atoms: _71  and  _72
REMARK   32  A    between atoms: _75  and  _77
REMARK   33  A    between atoms: _77  and  _78
REMARK   34  A    between atoms: _77  and  _80
REMARK   35  A    between atoms: _80  and  _81
REMARK   36  A    between atoms: _87  and  _89
REMARK   37  A    between atoms: _89  and  _90
REMARK   38  A    between atoms: _89  and  _92
REMARK   39  A    between atoms: _92  and  _93
REMARK   40  A    between atoms: _96  and  _98
REMARK   41  A    between atoms: _98  and  _99
REMARK   42  A    between atoms: _98  and  _101
REMARK   43  A    between atoms: _101  and  _102
REMARK   44  A    between atoms: _105  and  _107
REMARK   45  A    between atoms: _107  and  _108
REMARK   46  A    between atoms: _110  and  _112
REMARK   47  A    between atoms: _112  and  _113
REMARK   48  A    between atoms: _112  and  _115
REMARK   49  A    between atoms: _115  and  _116
REMARK   50  A    between atoms: _118  and  _120
REMARK   51  A    between atoms: _120  and  _121
REMARK   52  A    between atoms: _120  and  _123
REMARK   53  A    between atoms: _123  and  _124
REMARK   54  A    between atoms: _126  and  _128
REMARK   55  A    between atoms: _128  and  _129
REMARK   56  A    between atoms: _128  and  _131
REMARK   57  A    between atoms: _131  and  _132
REMARK   58  A    between atoms: _135  and  _137
REMARK   59  A    between atoms: _137  and  _138
REMARK   60  A    between atoms: _137  and  _140
REMARK   61  A    between atoms: _140  and  _141
REMARK   62  A    between atoms: _151  and  _153
REMARK   63  A    between atoms: _153  and  _154
REMARK   64  A    between atoms: _153  and  _156
REMARK   65  A    between atoms: _156  and  _157
REMARK   66  A    between atoms: _159  and  _161
REMARK   67  A    between atoms: _161  and  _162
REMARK   68  A    between atoms: _161  and  _164
REMARK   69  A    between atoms: _164  and  _165
REMARK   70  A    between atoms: _168  and  _170
REMARK   71  A    between atoms: _170  and  _171
REMARK   72  A    between atoms: _170  and  _173
REMARK   73  A    between atoms: _173  and  _174
REMARK   74  A    between atoms: _176  and  _178
REMARK   75  A    between atoms: _178  and  _179
REMARK   76  A    between atoms: _178  and  _181
REMARK   77  A    between atoms: _181  and  _182
REMARK   78  A    between atoms: _187  and  _188
REMARK   79  A    between atoms: _190  and  _192
REMARK   80  A    between atoms: _192  and  _193
REMARK   81  A    between atoms: _195  and  _197
REMARK   82  A    between atoms: _197  and  _198
REMARK   83  A    between atoms: _197  and  _200
REMARK   84  A    between atoms: _200  and  _201
REMARK   85  A    between atoms: _204  and  _206
REMARK   86  A    between atoms: _206  and  _207
REMARK   87  A    between atoms: _209  and  _211
REMARK   88  A    between atoms: _211  and  _212
REMARK   89  A    between atoms: _211  and  _214
REMARK   90  A    between atoms: _214  and  _215
REMARK   91  A    between atoms: _217  and  _219
REMARK   92  A    between atoms: _219  and  _220
REMARK   93  A    between atoms: _219  and  _222
REMARK   94  A    between atoms: _222  and  _223
REMARK   95  A    between atoms: _225  and  _227
REMARK   96  A    between atoms: _227  and  _228
REMARK   97  A    between atoms: _227  and  _230
REMARK   98  A    between atoms: _230  and  _231
REMARK   99  A    between atoms: _233  and  _235
REMARK  100  A    between atoms: _235  and  _236
REMARK  101  A    between atoms: _235  and  _238
REMARK  102  A    between atoms: _238  and  _239
REMARK  103  A    between atoms: _241  and  _243
REMARK  104  A    between atoms: _243  and  _244
REMARK  105  A    between atoms: _243  and  _246
REMARK  106  A    between atoms: _246  and  _247
REMARK  107  A    between atoms: _249  and  _251
REMARK  108  A    between atoms: _251  and  _252
REMARK  109  A    between atoms: _251  and  _254
REMARK  110  A    between atoms: _254  and  _255
REMARK  111  A    between atoms: _261  and  _263
REMARK  112  A    between atoms: _263  and  _264
REMARK  113  A    between atoms: _263  and  _266
REMARK  114  A    between atoms: _266  and  _267
REMARK  115  A    between atoms: _270  and  _272
REMARK  116  A    between atoms: _272  and  _273
REMARK  117  A    between atoms: _272  and  _275
REMARK  118  A    between atoms: _275  and  _276
REMARK  119  A    between atoms: _279  and  _281
REMARK  120  A    between atoms: _281  and  _282
REMARK  121  A    between atoms: _281  and  _284
REMARK  122  A    between atoms: _284  and  _285
REMARK  123  A    between atoms: _288  and  _290
REMARK  124  A    between atoms: _290  and  _291
REMARK  125  A    between atoms: _293  and  _295
REMARK  126  A    between atoms: _295  and  _296
REMARK  127  A    between atoms: _295  and  _298
REMARK  128  A    between atoms: _298  and  _299
REMARK  129  A    between atoms: _302  and  _304
REMARK  130  A    between atoms: _304  and  _305
REMARK  131  A    between atoms: _304  and  _307
REMARK  132  A    between atoms: _307  and  _308
REMARK  133  A    between atoms: _311  and  _313
REMARK  134  A    between atoms: _313  and  _314
REMARK  135  A    between atoms: _316  and  _318
REMARK  136  A    between atoms: _318  and  _319
REMARK  137  A    between atoms: _318  and  _321
REMARK  138  A    between atoms: _321  and  _322
REMARK  139  A    between atoms: _325  and  _327
REMARK  140  A    between atoms: _327  and  _328
REMARK  141  A    between atoms: _331  and  _333
REMARK  142  A    between atoms: _333  and  _334
REMARK  143  A    between atoms: _333  and  _336
REMARK  144  A    between atoms: _336  and  _337
REMARK  145  A    between atoms: _343  and  _345
REMARK  146  A    between atoms: _345  and  _346
REMARK  147  A    between atoms: _345  and  _348
REMARK  148  A    between atoms: _348  and  _349
REMARK  149  A    between atoms: _352  and  _354
REMARK  150  A    between atoms: _354  and  _355
REMARK  151  A    between atoms: _354  and  _357
REMARK  152  A    between atoms: _357  and  _358
REMARK  153  A    between atoms: _363  and  _365
REMARK  154  A    between atoms: _365  and  _366
REMARK  155  A    between atoms: _365  and  _368
REMARK  156  A    between atoms: _368  and  _369
REMARK  157  A    between atoms: _372  and  _374
REMARK  158  A    between atoms: _374  and  _375
REMARK  159  A    between atoms: _374  and  _377
REMARK  160  A    between atoms: _377  and  _378
REMARK  161  A    between atoms: _378  and  _379
REMARK  162  A    between atoms: _384  and  _386
REMARK  163  A    between atoms: _386  and  _387
REMARK  164  A    between atoms: _389  and  _391
REMARK  165  A    between atoms: _391  and  _392
REMARK  166  A    between atoms: _391  and  _394
REMARK  167  A    between atoms: _394  and  _395
REMARK  168  A    between atoms: _401  and  _403
REMARK  169  A    between atoms: _403  and  _404
REMARK  170  A    between atoms: _403  and  _406
REMARK  171  A    between atoms: _406  and  _407
REMARK  172  A    between atoms: _417  and  _419
REMARK  173  A    between atoms: _419  and  _420
REMARK  174  A    between atoms: _419  and  _422
REMARK  175  A    between atoms: _422  and  _423
REMARK  176  A    between atoms: _426  and  _428
REMARK  177  A    between atoms: _428  and  _429
REMARK  178  A    between atoms: _432  and  _434
REMARK  179  A    between atoms: _434  and  _435
REMARK  180  A    between atoms: _434  and  _437
REMARK  181  A    between atoms: _437  and  _438
REMARK  182  A    between atoms: _441  and  _443
REMARK  183  A    between atoms: _443  and  _444
REMARK  184  A    between atoms: _443  and  _446
REMARK  185  A    between atoms: _446  and  _447
REMARK  186  A    between atoms: _450  and  _452
REMARK  187  A    between atoms: _452  and  _453
REMARK  188  A    between atoms: _455  and  _457
REMARK  189  A    between atoms: _457  and  _458
REMARK  190  A    between atoms: _457  and  _460
REMARK  191  A    between atoms: _460  and  _461
REMARK  192  A    between atoms: _464  and  _466
REMARK  193  A    between atoms: _466  and  _467
REMARK  194  A    between atoms: _466  and  _469
REMARK  195  A    between atoms: _469  and  _470
REMARK  196  A    between atoms: _473  and  _475
REMARK  197  A    between atoms: _475  and  _476
REMARK  198  A    between atoms: _475  and  _478
REMARK  199  A    between atoms: _478  and  _479
REMARK  200  A    between atoms: _482  and  _484
REMARK  201  A    between atoms: _484  and  _485
REMARK  202  A    between atoms: _484  and  _487
REMARK  203  A    between atoms: _487  and  _488
REMARK  204  A    between atoms: _491  and  _493
REMARK  205  A    between atoms: _493  and  _494
REMARK  206  A    between atoms: _493  and  _496
REMARK  207  A    between atoms: _496  and  _497
REMARK  208  A    between atoms: _502  and  _503
REMARK  209  A    between atoms: _505  and  _507
REMARK  210  A    between atoms: _507  and  _508
REMARK  211  A    between atoms: _507  and  _510
REMARK  212  A    between atoms: _510  and  _511
REMARK  213  A    between atoms: _517  and  _519
REMARK  214  A    between atoms: _519  and  _520
REMARK  215  A    between atoms: _519  and  _522
REMARK  216  A    between atoms: _522  and  _523
REMARK  217  A    between atoms: _526  and  _528
REMARK  218  A    between atoms: _528  and  _529
REMARK  219  A    between atoms: _531  and  _533
REMARK  220  A    between atoms: _533  and  _534
REMARK  221  A    between atoms: _533  and  _536
REMARK  222  A    between atoms: _536  and  _537
REMARK  223  A    between atoms: _540  and  _542
REMARK  224  A    between atoms: _542  and  _543
REMARK  225  A    between atoms: _542  and  _545
REMARK  226  A    between atoms: _545  and  _546
REMARK  227  A    between atoms: _551  and  _553
REMARK  228  A    between atoms: _553  and  _554
REMARK  229  A    between atoms: _553  and  _556
REMARK  230  A    between atoms: _556  and  _557
REMARK  231  A    between atoms: _560  and  _562
REMARK  232  A    between atoms: _562  and  _563
REMARK  233  A    between atoms: _562  and  _565
REMARK  234  A    between atoms: _565  and  _566
REMARK  235  A    between atoms: _572  and  _574
REMARK  236  A    between atoms: _574  and  _575
REMARK  237  A    between atoms: _577  and  _579
REMARK  238  A    between atoms: _579  and  _580
REMARK  239  A    between atoms: _579  and  _582
REMARK  240  A    between atoms: _582  and  _583
REMARK  241  A    between atoms: _586  and  _588
REMARK  242  A    between atoms: _588  and  _589
REMARK  243  A    between atoms: _588  and  _591
REMARK                            x       y       z     vdW  Elec       q    Type
REMARK                         _______ _______ _______ _____ _____    ______ ____
ROOT
ATOM      1  O   HOH     1      -6.049   3.229   3.368  0.00  0.00    +0.000 OA
ENDROOT
TORSDOF 0
REMARK  Name = ../refined-set-2016/3pww/3pww_pocket.pdb
REMARK  243 active torsions:
REMARK  status: ('A' for Active; 'I' for Inactive)
REMARK    1  A    between atoms: _1  and  _3
REMARK    2  A    between atoms: _3  and  _4
REMARK    3  A    between atoms: _3  and  _6
REMARK    4  A    between atoms: _6  and  _7
REMARK    5  A    between atoms: _10  and  _12
REMARK    6  A    between atoms: _12  and  _13
REMARK    7  A    between atoms: _12  and  _15
REMARK    8  A    between atoms: _15  and  _16
REMARK    9  A    between atoms: _19  and  _21
REMARK   10  A    between atoms: _21  and  _22
REMARK   11  A    between atoms: _21  and  _24
REMARK   12  A    between atoms: _24  and  _25
REMARK   13  A    between atoms: _28  and  _30
REMARK   14  A    between atoms: _30  and  _31
REMARK   15  A    between atoms: _30  and  _33
REMARK   16  A    between atoms: _33  and  _34
REMARK   17  A    between atoms: _37  and  _39
REMARK   18  A    between atoms: _39  and  _40
REMARK   19  A    between atoms: _39  and  _42
REMARK   20  A    between atoms: _42  and  _43
REMARK   21  A    between atoms: _46  and  _48
REMARK   22  A    between atoms: _48  and  _49
REMARK   23  A    between atoms: _52  and  _54
REMARK   24  A    between atoms: _54  and  _55
REMARK   25  A    between atoms: _54  and  _57
REMARK   26  A    between atoms: _57  and  _58
REMARK   27  A    between atoms: _63  and  _64
REMARK   28  A    between atoms: _66  and  _68
REMARK   29  A    between atoms: _68  and  _69
REMARK   30  A    between atoms: _68  and  _71
REMARK   31  A    between atoms: _71  and  _72
REMARK   32  A    between atoms: _75  and  _77
REMARK   33  A    between atoms: _77  and  _78
REMARK   34  A    between atoms: _77  and  _80
REMARK   35  A    between atoms: _80  and  _81
REMARK   36  A    between atoms: _87  and  _89
REMARK   37  A    between atoms: _89  and  _90
REMARK   38  A    between atoms: _89  and  _92
REMARK   39  A    between atoms: _92  and  _93
REMARK   40  A    between atoms: _96  and  _98
REMARK   41  A    between atoms: _98  and  _99
REMARK   42  A    between atoms: _98  and  _101
REMARK   43  A    between atoms: _101  and  _102
REMARK   44  A    between atoms: _105  and  _107
REMARK   45  A    between atoms: _107  and  _108
REMARK   46  A    between atoms: _110  and  _112
REMARK   47  A    between atoms: _112  and  _113
REMARK   48  A    between atoms: _112  and  _115
REMARK   49  A    between atoms: _115  and  _116
REMARK   50  A    between atoms: _118  and  _120
REMARK   51  A    between atoms: _120  and  _121
REMARK   52  A    between atoms: _120  and  _123
REMARK   53  A    between atoms: _123  and  _124
REMARK   54  A    between atoms: _126  and  _128
REMARK   55  A    between atoms: _128  and  _129
REMARK   56  A    between atoms: _128  and  _131
REMARK   57  A    between atoms: _131  and  _132
REMARK   58  A    between atoms: _135  and  _137
REMARK   59  A    between atoms: _137  and  _138
REMARK   60  A    between atoms: _137  and  _140
REMARK   61  A    between atoms: _140  and  _141
REMARK   62  A    between atoms: _151  and  _153
REMARK   63  A    between atoms: _153  and  _154
REMARK   64  A    between atoms: _153  and  _156
REMARK   65  A    between atoms: _156  and  _157
REMARK   66  A    between atoms: _159  and  _161
REMARK   67  A    between atoms: _161  and  _162
REMARK   68  A    between atoms: _161  and  _164
REMARK   69  A    between atoms: _164  and  _165
REMARK   70  A    between atoms: _168  and  _170
REMARK   71  A    between atoms: _170  and  _171
REMARK   72  A    between atoms: _170  and  _173
REMARK   73  A    between atoms: _173  and  _174
REMARK   74  A    between atoms: _176  and  _178
REMARK   75  A    between atoms: _178  and  _179
REMARK   76  A    between atoms: _178  and  _181
REMARK   77  A    between atoms: _181  and  _182
REMARK   78  A    between atoms: _187  and  _188
REMARK   79  A    between atoms: _190  and  _192
REMARK   80  A    between atoms: _192  and  _193
REMARK   81  A    between atoms: _195  and  _197
REMARK   82  A    between atoms: _197  and  _198
REMARK   83  A    between atoms: _197  and  _200
REMARK   84  A    between atoms: _200  and  _201
REMARK   85  A    between atoms: _204  and  _206
REMARK   86  A    between atoms: _206  and  _207
REMARK   87  A    between atoms: _209  and  _211
REMARK   88  A    between atoms: _211  and  _212
REMARK   89  A    between atoms: _211  and  _214
REMARK   90  A    between atoms: _214  and  _215
REMARK   91  A    between atoms: _217  and  _219
REMARK   92  A    between atoms: _219  and  _220
REMARK   93  A    between atoms: _219  and  _222
REMARK   94  A    between atoms: _222  and  _223
REMARK   95  A    between atoms: _225  and  _227
REMARK   96  A    between atoms: _227  and  _228
REMARK   97  A    between atoms: _227  and  _230
REMARK   98  A    between atoms: _230  and  _231
REMARK   99  A    between atoms: _233  and  _235
REMARK  100  A    between atoms: _235  and  _236
REMARK  101  A    between atoms: _235  and  _238
REMARK  102  A    between atoms: _238  and  _239
REMARK  103  A    between atoms: _241  and  _243
REMARK  104  A    between atoms: _243  and  _244
REMARK  105  A    between atoms: _243  and  _246
REMARK  106  A    between atoms: _246  and  _247
REMARK  107  A    between atoms: _249  and  _251
REMARK  108  A    between atoms: _251  and  _252
REMARK  109  A    between atoms: _251  and  _254
REMARK  110  A    between atoms: _254  and  _255
REMARK  111  A    between atoms: _261  and  _263
REMARK  112  A    between atoms: _263  and  _264
REMARK  113  A    between atoms: _263  and  _266
REMARK  114  A    between atoms: _266  and  _267
REMARK  115  A    between atoms: _270  and  _272
REMARK  116  A    between atoms: _272  and  _273
REMARK  117  A    between atoms: _272  and  _275
REMARK  118  A    between atoms: _275  and  _276
REMARK  119  A    between atoms: _279  and  _281
REMARK  120  A    between atoms: _281  and  _282
REMARK  121  A    between atoms: _281  and  _284
REMARK  122  A    between atoms: _284  and  _285
REMARK  123  A    between atoms: _288  and  _290
REMARK  124  A    between atoms: _290  and  _291
REMARK  125  A    between atoms: _293  and  _295
REMARK  126  A    between atoms: _295  and  _296
REMARK  127  A    between atoms: _295  and  _298
REMARK  128  A    between atoms: _298  and  _299
REMARK  129  A    between atoms: _302  and  _304
REMARK  130  A    between atoms: _304  and  _305
REMARK  131  A    between atoms: _304  and  _307
REMARK  132  A    between atoms: _307  and  _308
REMARK  133  A    between atoms: _311  and  _313
REMARK  134  A    between atoms: _313  and  _314
REMARK  135  A    between atoms: _316  and  _318
REMARK  136  A    between atoms: _318  and  _319
REMARK  137  A    between atoms: _318  and  _321
REMARK  138  A    between atoms: _321  and  _322
REMARK  139  A    between atoms: _325  and  _327
REMARK  140  A    between atoms: _327  and  _328
REMARK  141  A    between atoms: _331  and  _333
REMARK  142  A    between atoms: _333  and  _334
REMARK  143  A    between atoms: _333  and  _336
REMARK  144  A    between atoms: _336  and  _337
REMARK  145  A    between atoms: _343  and  _345
REMARK  146  A    between atoms: _345  and  _346
REMARK  147  A    between atoms: _345  and  _348
REMARK  148  A    between atoms: _348  and  _349
REMARK  149  A    between atoms: _352  and  _354
REMARK  150  A    between atoms: _354  and  _355
REMARK  151  A    between atoms: _354  and  _357
REMARK  152  A    between atoms: _357  and  _358
REMARK  153  A    between atoms: _363  and  _365
REMARK  154  A    between atoms: _365  and  _366
REMARK  155  A    between atoms: _365  and  _368
REMARK  156  A    between atoms: _368  and  _369
REMARK  157  A    between atoms: _372  and  _374
REMARK  158  A    between atoms: _374  and  _375
REMARK  159  A    between atoms: _374  and  _377
REMARK  160  A    between atoms: _377  and  _378
REMARK  161  A    between atoms: _378  and  _379
REMARK  162  A    between atoms: _384  and  _386
REMARK  163  A    between atoms: _386  and  _387
REMARK  164  A    between atoms: _389  and  _391
REMARK  165  A    between atoms: _391  and  _392
REMARK  166  A    between atoms: _391  and  _394
REMARK  167  A    between atoms: _394  and  _395
REMARK  168  A    between atoms: _401  and  _403
REMARK  169  A    between atoms: _403  and  _404
REMARK  170  A    between atoms: _403  and  _406
REMARK  171  A    between atoms: _406  and  _407
REMARK  172  A    between atoms: _417  and  _419
REMARK  173  A    between atoms: _419  and  _420
REMARK  174  A    between atoms: _419  and  _422
REMARK  175  A    between atoms: _422  and  _423
REMARK  176  A    between atoms: _426  and  _428
REMARK  177  A    between atoms: _428  and  _429
REMARK  178  A    between atoms: _432  and  _434
REMARK  179  A    between atoms: _434  and  _435
REMARK  180  A    between atoms: _434  and  _437
REMARK  181  A    between atoms: _437  and  _438
REMARK  182  A    between atoms: _441  and  _443
REMARK  183  A    between atoms: _443  and  _444
REMARK  184  A    between atoms: _443  and  _446
REMARK  185  A    between atoms: _446  and  _447
REMARK  186  A    between atoms: _450  and  _452
REMARK  187  A    between atoms: _452  and  _453
REMARK  188  A    between atoms: _455  and  _457
REMARK  189  A    between atoms: _457  and  _458
REMARK  190  A    between atoms: _457  and  _460
REMARK  191  A    between atoms: _460  and  _461
REMARK  192  A    between atoms: _464  and  _466
REMARK  193  A    between atoms: _466  and  _467
REMARK  194  A    between atoms: _466  and  _469
REMARK  195  A    between atoms: _469  and  _470
REMARK  196  A    between atoms: _473  and  _475
REMARK  197  A    between atoms: _475  and  _476
REMARK  198  A    between atoms: _475  and  _478
REMARK  199  A    between atoms: _478  and  _479
REMARK  200  A    between atoms: _482  and  _484
REMARK  201  A    between atoms: _484  and  _485
REMARK  202  A    between atoms: _484  and  _487
REMARK  203  A    between atoms: _487  and  _488
REMARK  204  A    between atoms: _491  and  _493
REMARK  205  A    between atoms: _493  and  _494
REMARK  206  A    between atoms: _493  and  _496
REMARK  207  A    between atoms: _496  and  _497
REMARK  208  A    between atoms: _502  and  _503
REMARK  209  A    between atoms: _505  and  _507
REMARK  210  A    between atoms: _507  and  _508
REMARK  211  A    between atoms: _507  and  _510
REMARK  212  A    between atoms: _510  and  _511
REMARK  213  A    between atoms: _517  and  _519
REMARK  214  A    between atoms: _519  and  _520
REMARK  215  A    between atoms: _519  and  _522
REMARK  216  A    between atoms: _522  and  _523
REMARK  217  A    between atoms: _526  and  _528
REMARK  218  A    between atoms: _528  and  _529
REMARK  219  A    between atoms: _531  and  _533
REMARK  220  A    between atoms: _533  and  _534
REMARK  221  A    between atoms: _533  and  _536
REMARK  222  A    between atoms: _536  and  _537
REMARK  223  A    between atoms: _540  and  _542
REMARK  224  A    between atoms: _542  and  _543
REMARK  225  A    between atoms: _542  and  _545
REMARK  226  A    between atoms: _545  and  _546
REMARK  227  A    between atoms: _551  and  _553
REMARK  228  A    between atoms: _553  and  _554
REMARK  229  A    between atoms: _553  and  _556
REMARK  230  A    between atoms: _556  and  _557
REMARK  231  A    between atoms: _560  and  _562
REMARK  232  A    between atoms: _562  and  _563
REMARK  233  A    between atoms: _562  and  _565
REMARK  234  A    between atoms: _565  and  _566
REMARK  235  A    between atoms: _572  and  _574
REMARK  236  A    between atoms: _574  and  _575
REMARK  237  A    between atoms: _577  and  _579
REMARK  238  A    between atoms: _579  and  _580
REMARK  239  A    between atoms: _579  and  _582
REMARK  240  A    between atoms: _582  and  _583
REMARK  241  A    between atoms: _586  and  _588
REMARK  242  A    between atoms: _588  and  _589
REMARK  243  A    between atoms: _588  and  _591
REMARK                            x       y       z     vdW  Elec       q    Type
REMARK                         _______ _______ _______ _____ _____    ______ ____
ROOT
ATOM      1  O   HOH     1       7.548  13.579  13.967  0.00  0.00    +0.000 OA
ENDROOT
TORSDOF 0
REMARK  Name = ../refined-set-2016/3pww/3pww_pocket.pdb
REMARK  243 active torsions:
REMARK  status: ('A' for Active; 'I' for Inactive)
REMARK    1  A    between atoms: _1  and  _3
REMARK    2  A    between atoms: _3  and  _4
REMARK    3  A    between atoms: _3  and  _6
REMARK    4  A    between atoms: _6  and  _7
REMARK    5  A    between atoms: _10  and  _12
REMARK    6  A    between atoms: _12  and  _13
REMARK    7  A    between atoms: _12  and  _15
REMARK    8  A    between atoms: _15  and  _16
REMARK    9  A    between atoms: _19  and  _21
REMARK   10  A    between atoms: _21  and  _22
REMARK   11  A    between atoms: _21  and  _24
REMARK   12  A    between atoms: _24  and  _25
REMARK   13  A    between atoms: _28  and  _30
REMARK   14  A    between atoms: _30  and  _31
REMARK   15  A    between atoms: _30  and  _33
REMARK   16  A    between atoms: _33  and  _34
REMARK   17  A    between atoms: _37  and  _39
REMARK   18  A    between atoms: _39  and  _40
REMARK   19  A    between atoms: _39  and  _42
REMARK   20  A    between atoms: _42  and  _43
REMARK   21  A    between atoms: _46  and  _48
REMARK   22  A    between atoms: _48  and  _49
REMARK   23  A    between atoms: _52  and  _54
REMARK   24  A    between atoms: _54  and  _55
REMARK   25  A    between atoms: _54  and  _57
REMARK   26  A    between atoms: _57  and  _58
REMARK   27  A    between atoms: _63  and  _64
REMARK   28  A    between atoms: _66  and  _68
REMARK   29  A    between atoms: _68  and  _69
REMARK   30  A    between atoms: _68  and  _71
REMARK   31  A    between atoms: _71  and  _72
REMARK   32  A    between atoms: _75  and  _77
REMARK   33  A    between atoms: _77  and  _78
REMARK   34  A    between atoms: _77  and  _80
REMARK   35  A    between atoms: _80  and  _81
REMARK   36  A    between atoms: _87  and  _89
REMARK   37  A    between atoms: _89  and  _90
REMARK   38  A    between atoms: _89  and  _92
REMARK   39  A    between atoms: _92  and  _93
REMARK   40  A    between atoms: _96  and  _98
REMARK   41  A    between atoms: _98  and  _99
REMARK   42  A    between atoms: _98  and  _101
REMARK   43  A    between atoms: _101  and  _102
REMARK   44  A    between atoms: _105  and  _107
REMARK   45  A    between atoms: _107  and  _108
REMARK   46  A    between atoms: _110  and  _112
REMARK   47  A    between atoms: _112  and  _113
REMARK   48  A    between atoms: _112  and  _115
REMARK   49  A    between atoms: _115  and  _116
REMARK   50  A    between atoms: _118  and  _120
REMARK   51  A    between atoms: _120  and  _121
REMARK   52  A    between atoms: _120  and  _123
REMARK   53  A    between atoms: _123  and  _124
REMARK   54  A    between atoms: _126  and  _128
REMARK   55  A    between atoms: _128  and  _129
REMARK   56  A    between atoms: _128  and  _131
REMARK   57  A    between atoms: _131  and  _132
REMARK   58  A    between atoms: _135  and  _137
REMARK   59  A    between atoms: _137  and  _138
REMARK   60  A    between atoms: _137  and  _140
REMARK   61  A    between atoms: _140  and  _141
REMARK   62  A    between atoms: _151  and  _153
REMARK   63  A    between atoms: _153  and  _154
REMARK   64  A    between atoms: _153  and  _156
REMARK   65  A    between atoms: _156  and  _157
REMARK   66  A    between atoms: _159  and  _161
REMARK   67  A    between atoms: _161  and  _162
REMARK   68  A    between atoms: _161  and  _164
REMARK   69  A    between atoms: _164  and  _165
REMARK   70  A    between atoms: _168  and  _170
REMARK   71  A    between atoms: _170  and  _171
REMARK   72  A    between atoms: _170  and  _173
REMARK   73  A    between atoms: _173  and  _174
REMARK   74  A    between atoms: _176  and  _178
REMARK   75  A    between atoms: _178  and  _179
REMARK   76  A    between atoms: _178  and  _181
REMARK   77  A    between atoms: _181  and  _182
REMARK   78  A    between atoms: _187  and  _188
REMARK   79  A    between atoms: _190  and  _192
REMARK   80  A    between atoms: _192  and  _193
REMARK   81  A    between atoms: _195  and  _197
REMARK   82  A    between atoms: _197  and  _198
REMARK   83  A    between atoms: _197  and  _200
REMARK   84  A    between atoms: _200  and  _201
REMARK   85  A    between atoms: _204  and  _206
REMARK   86  A    between atoms: _206  and  _207
REMARK   87  A    between atoms: _209  and  _211
REMARK   88  A    between atoms: _211  and  _212
REMARK   89  A    between atoms: _211  and  _214
REMARK   90  A    between atoms: _214  and  _215
REMARK   91  A    between atoms: _217  and  _219
REMARK   92  A    between atoms: _219  and  _220
REMARK   93  A    between atoms: _219  and  _222
REMARK   94  A    between atoms: _222  and  _223
REMARK   95  A    between atoms: _225  and  _227
REMARK   96  A    between atoms: _227  and  _228
REMARK   97  A    between atoms: _227  and  _230
REMARK   98  A    between atoms: _230  and  _231
REMARK   99  A    between atoms: _233  and  _235
REMARK  100  A    between atoms: _235  and  _236
REMARK  101  A    between atoms: _235  and  _238
REMARK  102  A    between atoms: _238  and  _239
REMARK  103  A    between atoms: _241  and  _243
REMARK  104  A    between atoms: _243  and  _244
REMARK  105  A    between atoms: _243  and  _246
REMARK  106  A    between atoms: _246  and  _247
REMARK  107  A    between atoms: _249  and  _251
REMARK  108  A    between atoms: _251  and  _252
REMARK  109  A    between atoms: _251  and  _254
REMARK  110  A    between atoms: _254  and  _255
REMARK  111  A    between atoms: _261  and  _263
REMARK  112  A    between atoms: _263  and  _264
REMARK  113  A    between atoms: _263  and  _266
REMARK  114  A    between atoms: _266  and  _267
REMARK  115  A    between atoms: _270  and  _272
REMARK  116  A    between atoms: _272  and  _273
REMARK  117  A    between atoms: _272  and  _275
REMARK  118  A    between atoms: _275  and  _276
REMARK  119  A    between atoms: _279  and  _281
REMARK  120  A    between atoms: _281  and  _282
REMARK  121  A    between atoms: _281  and  _284
REMARK  122  A    between atoms: _284  and  _285
REMARK  123  A    between atoms: _288  and  _290
REMARK  124  A    between atoms: _290  and  _291
REMARK  125  A    between atoms: _293  and  _295
REMARK  126  A    between atoms: _295  and  _296
REMARK  127  A    between atoms: _295  and  _298
REMARK  128  A    between atoms: _298  and  _299
REMARK  129  A    between atoms: _302  and  _304
REMARK  130  A    between atoms: _304  and  _305
REMARK  131  A    between atoms: _304  and  _307
REMARK  132  A    between atoms: _307  and  _308
REMARK  133  A    between atoms: _311  and  _313
REMARK  134  A    between atoms: _313  and  _314
REMARK  135  A    between atoms: _316  and  _318
REMARK  136  A    between atoms: _318  and  _319
REMARK  137  A    between atoms: _318  and  _321
REMARK  138  A    between atoms: _321  and  _322
REMARK  139  A    between atoms: _325  and  _327
REMARK  140  A    between atoms: _327  and  _328
REMARK  141  A    between atoms: _331  and  _333
REMARK  142  A    between atoms: _333  and  _334
REMARK  143  A    between atoms: _333  and  _336
REMARK  144  A    between atoms: _336  and  _337
REMARK  145  A    between atoms: _343  and  _345
REMARK  146  A    between atoms: _345  and  _346
REMARK  147  A    between atoms: _345  and  _348
REMARK  148  A    between atoms: _348  and  _349
REMARK  149  A    between atoms: _352  and  _354
REMARK  150  A    between atoms: _354  and  _355
REMARK  151  A    between atoms: _354  and  _357
REMARK  152  A    between atoms: _357  and  _358
REMARK  153  A    between atoms: _363  and  _365
REMARK  154  A    between atoms: _365  and  _366
REMARK  155  A    between atoms: _365  and  _368
REMARK  156  A    between atoms: _368  and  _369
REMARK  157  A    between atoms: _372  and  _374
REMARK  158  A    between atoms: _374  and  _375
REMARK  159  A    between atoms: _374  and  _377
REMARK  160  A    between atoms: _377  and  _378
REMARK  161  A    between atoms: _378  and  _379
REMARK  162  A    between atoms: _384  and  _386
REMARK  163  A    between atoms: _386  and  _387
REMARK  164  A    between atoms: _389  and  _391
REMARK  165  A    between atoms: _391  and  _392
REMARK  166  A    between atoms: _391  and  _394
REMARK  167  A    between atoms: _394  and  _395
REMARK  168  A    between atoms: _401  and  _403
REMARK  169  A    between atoms: _403  and  _404
REMARK  170  A    between atoms: _403  and  _406
REMARK  171  A    between atoms: _406  and  _407
REMARK  172  A    between atoms: _417  and  _419
REMARK  173  A    between atoms: _419  and  _420
REMARK  174  A    between atoms: _419  and  _422
REMARK  175  A    between atoms: _422  and  _423
REMARK  176  A    between atoms: _426  and  _428
REMARK  177  A    between atoms: _428  and  _429
REMARK  178  A    between atoms: _432  and  _434
REMARK  179  A    between atoms: _434  and  _435
REMARK  180  A    between atoms: _434  and  _437
REMARK  181  A    between atoms: _437  and  _438
REMARK  182  A    between atoms: _441  and  _443
REMARK  183  A    between atoms: _443  and  _444
REMARK  184  A    between atoms: _443  and  _446
REMARK  185  A    between atoms: _446  and  _447
REMARK  186  A    between atoms: _450  and  _452
REMARK  187  A    between atoms: _452  and  _453
REMARK  188  A    between atoms: _455  and  _457
REMARK  189  A    between atoms: _457  and  _458
REMARK  190  A    between atoms: _457  and  _460
REMARK  191  A    between atoms: _460  and  _461
REMARK  192  A    between atoms: _464  and  _466
REMARK  193  A    between atoms: _466  and  _467
REMARK  194  A    between atoms: _466  and  _469
REMARK  195  A    between atoms: _469  and  _470
REMARK  196  A    between atoms: _473  and  _475
REMARK  197  A    between atoms: _475  and  _476
REMARK  198  A    between atoms: _475  and  _478
REMARK  199  A    between atoms: _478  and  _479
REMARK  200  A    between atoms: _482  and  _484
REMARK  201  A    between atoms: _484  and  _485
REMARK  202  A    between atoms: _484  and  _487
REMARK  203  A    between atoms: _487  and  _488
REMARK  204  A    between atoms: _491  and  _493
REMARK  205  A    between atoms: _493  and  _494
REMARK  206  A    between atoms: _493  and  _496
REMARK  207  A    between atoms: _496  and  _497
REMARK  208  A    between atoms: _502  and  _503
REMARK  209  A    between atoms: _505  and  _507
REMARK  210  A    between atoms: _507  and  _508
REMARK  211  A    between atoms: _507  and  _510
REMARK  212  A    between atoms: _510  and  _511
REMARK  213  A    between atoms: _517  and  _519
REMARK  214  A    between atoms: _519  and  _520
REMARK  215  A    between atoms: _519  and  _522
REMARK  216  A    between atoms: _522  and  _523
REMARK  217  A    between atoms: _526  and  _528
REMARK  218  A    between atoms: _528  and  _529
REMARK  219  A    between atoms: _531  and  _533
REMARK  220  A    between atoms: _533  and  _534
REMARK  221  A    between atoms: _533  and  _536
REMARK  222  A    between atoms: _536  and  _537
REMARK  223  A    between atoms: _540  and  _542
REMARK  224  A    between atoms: _542  and  _543
REMARK  225  A    between atoms: _542  and  _545
REMARK  226  A    between atoms: _545  and  _546
REMARK  227  A    between atoms: _551  and  _553
REMARK  228  A    between atoms: _553  and  _554
REMARK  229  A    between atoms: _553  and  _556
REMARK  230  A    between atoms: _556  and  _557
REMARK  231  A    between atoms: _560  and  _562
REMARK  232  A    between atoms: _562  and  _563
REMARK  233  A    between atoms: _562  and  _565
REMARK  234  A    between atoms: _565  and  _566
REMARK  235  A    between atoms: _572  and  _574
REMARK  236  A    between atoms: _574  and  _575
REMARK  237  A    between atoms: _577  and  _579
REMARK  238  A    between atoms: _579  and  _580
REMARK  239  A    between atoms: _579  and  _582
REMARK  240  A    between atoms: _582  and  _583
REMARK  241  A    between atoms: _586  and  _588
REMARK  242  A    between atoms: _588  and  _589
REMARK  243  A    between atoms: _588  and  _591
REMARK                            x       y       z     vdW  Elec       q    Type
REMARK                         _______ _______ _______ _____ _____    ______ ____
ROOT
ATOM      1  O   HOH     1      -7.541   8.424   1.660  0.00  0.00    +0.000 OA
ENDROOT
TORSDOF 0
REMARK  Name = ../refined-set-2016/3pww/3pww_pocket.pdb
REMARK  243 active torsions:
REMARK  status: ('A' for Active; 'I' for Inactive)
REMARK    1  A    between atoms: _1  and  _3
REMARK    2  A    between atoms: _3  and  _4
REMARK    3  A    between atoms: _3  and  _6
REMARK    4  A    between atoms: _6  and  _7
REMARK    5  A    between atoms: _10  and  _12
REMARK    6  A    between atoms: _12  and  _13
REMARK    7  A    between atoms: _12  and  _15
REMARK    8  A    between atoms: _15  and  _16
REMARK    9  A    between atoms: _19  and  _21
REMARK   10  A    between atoms: _21  and  _22
REMARK   11  A    between atoms: _21  and  _24
REMARK   12  A    between atoms: _24  and  _25
REMARK   13  A    between atoms: _28  and  _30
REMARK   14  A    between atoms: _30  and  _31
REMARK   15  A    between atoms: _30  and  _33
REMARK   16  A    between atoms: _33  and  _34
REMARK   17  A    between atoms: _37  and  _39
REMARK   18  A    between atoms: _39  and  _40
REMARK   19  A    between atoms: _39  and  _42
REMARK   20  A    between atoms: _42  and  _43
REMARK   21  A    between atoms: _46  and  _48
REMARK   22  A    between atoms: _48  and  _49
REMARK   23  A    between atoms: _52  and  _54
REMARK   24  A    between atoms: _54  and  _55
REMARK   25  A    between atoms: _54  and  _57
REMARK   26  A    between atoms: _57  and  _58
REMARK   27  A    between atoms: _63  and  _64
REMARK   28  A    between atoms: _66  and  _68
REMARK   29  A    between atoms: _68  and  _69
REMARK   30  A    between atoms: _68  and  _71
REMARK   31  A    between atoms: _71  and  _72
REMARK   32  A    between atoms: _75  and  _77
REMARK   33  A    between atoms: _77  and  _78
REMARK   34  A    between atoms: _77  and  _80
REMARK   35  A    between atoms: _80  and  _81
REMARK   36  A    between atoms: _87  and  _89
REMARK   37  A    between atoms: _89  and  _90
REMARK   38  A    between atoms: _89  and  _92
REMARK   39  A    between atoms: _92  and  _93
REMARK   40  A    between atoms: _96  and  _98
REMARK   41  A    between atoms: _98  and  _99
REMARK   42  A    between atoms: _98  and  _101
REMARK   43  A    between atoms: _101  and  _102
REMARK   44  A    between atoms: _105  and  _107
REMARK   45  A    between atoms: _107  and  _108
REMARK   46  A    between atoms: _110  and  _112
REMARK   47  A    between atoms: _112  and  _113
REMARK   48  A    between atoms: _112  and  _115
REMARK   49  A    between atoms: _115  and  _116
REMARK   50  A    between atoms: _118  and  _120
REMARK   51  A    between atoms: _120  and  _121
REMARK   52  A    between atoms: _120  and  _123
REMARK   53  A    between atoms: _123  and  _124
REMARK   54  A    between atoms: _126  and  _128
REMARK   55  A    between atoms: _128  and  _129
REMARK   56  A    between atoms: _128  and  _131
REMARK   57  A    between atoms: _131  and  _132
REMARK   58  A    between atoms: _135  and  _137
REMARK   59  A    between atoms: _137  and  _138
REMARK   60  A    between atoms: _137  and  _140
REMARK   61  A    between atoms: _140  and  _141
REMARK   62  A    between atoms: _151  and  _153
REMARK   63  A    between atoms: _153  and  _154
REMARK   64  A    between atoms: _153  and  _156
REMARK   65  A    between atoms: _156  and  _157
REMARK   66  A    between atoms: _159  and  _161
REMARK   67  A    between atoms: _161  and  _162
REMARK   68  A    between atoms: _161  and  _164
REMARK   69  A    between atoms: _164  and  _165
REMARK   70  A    between atoms: _168  and  _170
REMARK   71  A    between atoms: _170  and  _171
REMARK   72  A    between atoms: _170  and  _173
REMARK   73  A    between atoms: _173  and  _174
REMARK   74  A    between atoms: _176  and  _178
REMARK   75  A    between atoms: _178  and  _179
REMARK   76  A    between atoms: _178  and  _181
REMARK   77  A    between atoms: _181  and  _182
REMARK   78  A    between atoms: _187  and  _188
REMARK   79  A    between atoms: _190  and  _192
REMARK   80  A    between atoms: _192  and  _193
REMARK   81  A    between atoms: _195  and  _197
REMARK   82  A    between atoms: _197  and  _198
REMARK   83  A    between atoms: _197  and  _200
REMARK   84  A    between atoms: _200  and  _201
REMARK   85  A    between atoms: _204  and  _206
REMARK   86  A    between atoms: _206  and  _207
REMARK   87  A    between atoms: _209  and  _211
REMARK   88  A    between atoms: _211  and  _212
REMARK   89  A    between atoms: _211  and  _214
REMARK   90  A    between atoms: _214  and  _215
REMARK   91  A    between atoms: _217  and  _219
REMARK   92  A    between atoms: _219  and  _220
REMARK   93  A    between atoms: _219  and  _222
REMARK   94  A    between atoms: _222  and  _223
REMARK   95  A    between atoms: _225  and  _227
REMARK   96  A    between atoms: _227  and  _228
REMARK   97  A    between atoms: _227  and  _230
REMARK   98  A    between atoms: _230  and  _231
REMARK   99  A    between atoms: _233  and  _235
REMARK  100  A    between atoms: _235  and  _236
REMARK  101  A    between atoms: _235  and  _238
REMARK  102  A    between atoms: _238  and  _239
REMARK  103  A    between atoms: _241  and  _243
REMARK  104  A    between atoms: _243  and  _244
REMARK  105  A    between atoms: _243  and  _246
REMARK  106  A    between atoms: _246  and  _247
REMARK  107  A    between atoms: _249  and  _251
REMARK  108  A    between atoms: _251  and  _252
REMARK  109  A    between atoms: _251  and  _254
REMARK  110  A    between atoms: _254  and  _255
REMARK  111  A    between atoms: _261  and  _263
REMARK  112  A    between atoms: _263  and  _264
REMARK  113  A    between atoms: _263  and  _266
REMARK  114  A    between atoms: _266  and  _267
REMARK  115  A    between atoms: _270  and  _272
REMARK  116  A    between atoms: _272  and  _273
REMARK  117  A    between atoms: _272  and  _275
REMARK  118  A    between atoms: _275  and  _276
REMARK  119  A    between atoms: _279  and  _281
REMARK  120  A    between atoms: _281  and  _282
REMARK  121  A    between atoms: _281  and  _284
REMARK  122  A    between atoms: _284  and  _285
REMARK  123  A    between atoms: _288  and  _290
REMARK  124  A    between atoms: _290  and  _291
REMARK  125  A    between atoms: _293  and  _295
REMARK  126  A    between atoms: _295  and  _296
REMARK  127  A    between atoms: _295  and  _298
REMARK  128  A    between atoms: _298  and  _299
REMARK  129  A    between atoms: _302  and  _304
REMARK  130  A    between atoms: _304  and  _305
REMARK  131  A    between atoms: _304  and  _307
REMARK  132  A    between atoms: _307  and  _308
REMARK  133  A    between atoms: _311  and  _313
REMARK  134  A    between atoms: _313  and  _314
REMARK  135  A    between atoms: _316  and  _318
REMARK  136  A    between atoms: _318  and  _319
REMARK  137  A    between atoms: _318  and  _321
REMARK  138  A    between atoms: _321  and  _322
REMARK  139  A    between atoms: _325  and  _327
REMARK  140  A    between atoms: _327  and  _328
REMARK  141  A    between atoms: _331  and  _333
REMARK  142  A    between atoms: _333  and  _334
REMARK  143  A    between atoms: _333  and  _336
REMARK  144  A    between atoms: _336  and  _337
REMARK  145  A    between atoms: _343  and  _345
REMARK  146  A    between atoms: _345  and  _346
REMARK  147  A    between atoms: _345  and  _348
REMARK  148  A    between atoms: _348  and  _349
REMARK  149  A    between atoms: _352  and  _354
REMARK  150  A    between atoms: _354  and  _355
REMARK  151  A    between atoms: _354  and  _357
REMARK  152  A    between atoms: _357  and  _358
REMARK  153  A    between atoms: _363  and  _365
REMARK  154  A    between atoms: _365  and  _366
REMARK  155  A    between atoms: _365  and  _368
REMARK  156  A    between atoms: _368  and  _369
REMARK  157  A    between atoms: _372  and  _374
REMARK  158  A    between atoms: _374  and  _375
REMARK  159  A    between atoms: _374  and  _377
REMARK  160  A    between atoms: _377  and  _378
REMARK  161  A    between atoms: _378  and  _379
REMARK  162  A    between atoms: _384  and  _386
REMARK  163  A    between atoms: _386  and  _387
REMARK  164  A    between atoms: _389  and  _391
REMARK  165  A    between atoms: _391  and  _392
REMARK  166  A    between atoms: _391  and  _394
REMARK  167  A    between atoms: _394  and  _395
REMARK  168  A    between atoms: _401  and  _403
REMARK  169  A    between atoms: _403  and  _404
REMARK  170  A    between atoms: _403  and  _406
REMARK  171  A    between atoms: _406  and  _407
REMARK  172  A    between atoms: _417  and  _419
REMARK  173  A    between atoms: _419  and  _420
REMARK  174  A    between atoms: _419  and  _422
REMARK  175  A    between atoms: _422  and  _423
REMARK  176  A    between atoms: _426  and  _428
REMARK  177  A    between atoms: _428  and  _429
REMARK  178  A    between atoms: _432  and  _434
REMARK  179  A    between atoms: _434  and  _435
REMARK  180  A    between atoms: _434  and  _437
REMARK  181  A    between atoms: _437  and  _438
REMARK  182  A    between atoms: _441  and  _443
REMARK  183  A    between atoms: _443  and  _444
REMARK  184  A    between atoms: _443  and  _446
REMARK  185  A    between atoms: _446  and  _447
REMARK  186  A    between atoms: _450  and  _452
REMARK  187  A    between atoms: _452  and  _453
REMARK  188  A    between atoms: _455  and  _457
REMARK  189  A    between atoms: _457  and  _458
REMARK  190  A    between atoms: _457  and  _460
REMARK  191  A    between atoms: _460  and  _461
REMARK  192  A    between atoms: _464  and  _466
REMARK  193  A    between atoms: _466  and  _467
REMARK  194  A    between atoms: _466  and  _469
REMARK  195  A    between atoms: _469  and  _470
REMARK  196  A    between atoms: _473  and  _475
REMARK  197  A    between atoms: _475  and  _476
REMARK  198  A    between atoms: _475  and  _478
REMARK  199  A    between atoms: _478  and  _479
REMARK  200  A    between atoms: _482  and  _484
REMARK  201  A    between atoms: _484  and  _485
REMARK  202  A    between atoms: _484  and  _487
REMARK  203  A    between atoms: _487  and  _488
REMARK  204  A    between atoms: _491  and  _493
REMARK  205  A    between atoms: _493  and  _494
REMARK  206  A    between atoms: _493  and  _496
REMARK  207  A    between atoms: _496  and  _497
REMARK  208  A    between atoms: _502  and  _503
REMARK  209  A    between atoms: _505  and  _507
REMARK  210  A    between atoms: _507  and  _508
REMARK  211  A    between atoms: _507  and  _510
REMARK  212  A    between atoms: _510  and  _511
REMARK  213  A    between atoms: _517  and  _519
REMARK  214  A    between atoms: _519  and  _520
REMARK  215  A    between atoms: _519  and  _522
REMARK  216  A    between atoms: _522  and  _523
REMARK  217  A    between atoms: _526  and  _528
REMARK  218  A    between atoms: _528  and  _529
REMARK  219  A    between atoms: _531  and  _533
REMARK  220  A    between atoms: _533  and  _534
REMARK  221  A    between atoms: _533  and  _536
REMARK  222  A    between atoms: _536  and  _537
REMARK  223  A    between atoms: _540  and  _542
REMARK  224  A    between atoms: _542  and  _543
REMARK  225  A    between atoms: _542  and  _545
REMARK  226  A    between atoms: _545  and  _546
REMARK  227  A    between atoms: _551  and  _553
REMARK  228  A    between atoms: _553  and  _554
REMARK  229  A    between atoms: _553  and  _556
REMARK  230  A    between atoms: _556  and  _557
REMARK  231  A    between atoms: _560  and  _562
REMARK  232  A    between atoms: _562  and  _563
REMARK  233  A    between atoms: _562  and  _565
REMARK  234  A    between atoms: _565  and  _566
REMARK  235  A    between atoms: _572  and  _574
REMARK  236  A    between atoms: _574  and  _575
REMARK  237  A    between atoms: _577  and  _579
REMARK  238  A    between atoms: _579  and  _580
REMARK  239  A    between atoms: _579  and  _582
REMARK  240  A    between atoms: _582  and  _583
REMARK  241  A    between atoms: _586  and  _588
REMARK  242  A    between atoms: _588  and  _589
REMARK  243  A    between atoms: _588  and  _591
REMARK                            x       y       z     vdW  Elec       q    Type
REMARK                         _______ _______ _______ _____ _____    ______ ____
ROOT
ATOM      1  O   HOH     1       0.616   9.317  19.188  0.00  0.00    +0.000 OA
ENDROOT
TORSDOF 0
REMARK  Name = ../refined-set-2016/3pww/3pww_pocket.pdb
REMARK  243 active torsions:
REMARK  status: ('A' for Active; 'I' for Inactive)
REMARK    1  A    between atoms: _1  and  _3
REMARK    2  A    between atoms: _3  and  _4
REMARK    3  A    between atoms: _3  and  _6
REMARK    4  A    between atoms: _6  and  _7
REMARK    5  A    between atoms: _10  and  _12
REMARK    6  A    between atoms: _12  and  _13
REMARK    7  A    between atoms: _12  and  _15
REMARK    8  A    between atoms: _15  and  _16
REMARK    9  A    between atoms: _19  and  _21
REMARK   10  A    between atoms: _21  and  _22
REMARK   11  A    between atoms: _21  and  _24
REMARK   12  A    between atoms: _24  and  _25
REMARK   13  A    between atoms: _28  and  _30
REMARK   14  A    between atoms: _30  and  _31
REMARK   15  A    between atoms: _30  and  _33
REMARK   16  A    between atoms: _33  and  _34
REMARK   17  A    between atoms: _37  and  _39
REMARK   18  A    between atoms: _39  and  _40
REMARK   19  A    between atoms: _39  and  _42
REMARK   20  A    between atoms: _42  and  _43
REMARK   21  A    between atoms: _46  and  _48
REMARK   22  A    between atoms: _48  and  _49
REMARK   23  A    between atoms: _52  and  _54
REMARK   24  A    between atoms: _54  and  _55
REMARK   25  A    between atoms: _54  and  _57
REMARK   26  A    between atoms: _57  and  _58
REMARK   27  A    between atoms: _63  and  _64
REMARK   28  A    between atoms: _66  and  _68
REMARK   29  A    between atoms: _68  and  _69
REMARK   30  A    between atoms: _68  and  _71
REMARK   31  A    between atoms: _71  and  _72
REMARK   32  A    between atoms: _75  and  _77
REMARK   33  A    between atoms: _77  and  _78
REMARK   34  A    between atoms: _77  and  _80
REMARK   35  A    between atoms: _80  and  _81
REMARK   36  A    between atoms: _87  and  _89
REMARK   37  A    between atoms: _89  and  _90
REMARK   38  A    between atoms: _89  and  _92
REMARK   39  A    between atoms: _92  and  _93
REMARK   40  A    between atoms: _96  and  _98
REMARK   41  A    between atoms: _98  and  _99
REMARK   42  A    between atoms: _98  and  _101
REMARK   43  A    between atoms: _101  and  _102
REMARK   44  A    between atoms: _105  and  _107
REMARK   45  A    between atoms: _107  and  _108
REMARK   46  A    between atoms: _110  and  _112
REMARK   47  A    between atoms: _112  and  _113
REMARK   48  A    between atoms: _112  and  _115
REMARK   49  A    between atoms: _115  and  _116
REMARK   50  A    between atoms: _118  and  _120
REMARK   51  A    between atoms: _120  and  _121
REMARK   52  A    between atoms: _120  and  _123
REMARK   53  A    between atoms: _123  and  _124
REMARK   54  A    between atoms: _126  and  _128
REMARK   55  A    between atoms: _128  and  _129
REMARK   56  A    between atoms: _128  and  _131
REMARK   57  A    between atoms: _131  and  _132
REMARK   58  A    between atoms: _135  and  _137
REMARK   59  A    between atoms: _137  and  _138
REMARK   60  A    between atoms: _137  and  _140
REMARK   61  A    between atoms: _140  and  _141
REMARK   62  A    between atoms: _151  and  _153
REMARK   63  A    between atoms: _153  and  _154
REMARK   64  A    between atoms: _153  and  _156
REMARK   65  A    between atoms: _156  and  _157
REMARK   66  A    between atoms: _159  and  _161
REMARK   67  A    between atoms: _161  and  _162
REMARK   68  A    between atoms: _161  and  _164
REMARK   69  A    between atoms: _164  and  _165
REMARK   70  A    between atoms: _168  and  _170
REMARK   71  A    between atoms: _170  and  _171
REMARK   72  A    between atoms: _170  and  _173
REMARK   73  A    between atoms: _173  and  _174
REMARK   74  A    between atoms: _176  and  _178
REMARK   75  A    between atoms: _178  and  _179
REMARK   76  A    between atoms: _178  and  _181
REMARK   77  A    between atoms: _181  and  _182
REMARK   78  A    between atoms: _187  and  _188
REMARK   79  A    between atoms: _190  and  _192
REMARK   80  A    between atoms: _192  and  _193
REMARK   81  A    between atoms: _195  and  _197
REMARK   82  A    between atoms: _197  and  _198
REMARK   83  A    between atoms: _197  and  _200
REMARK   84  A    between atoms: _200  and  _201
REMARK   85  A    between atoms: _204  and  _206
REMARK   86  A    between atoms: _206  and  _207
REMARK   87  A    between atoms: _209  and  _211
REMARK   88  A    between atoms: _211  and  _212
REMARK   89  A    between atoms: _211  and  _214
REMARK   90  A    between atoms: _214  and  _215
REMARK   91  A    between atoms: _217  and  _219
REMARK   92  A    between atoms: _219  and  _220
REMARK   93  A    between atoms: _219  and  _222
REMARK   94  A    between atoms: _222  and  _223
REMARK   95  A    between atoms: _225  and  _227
REMARK   96  A    between atoms: _227  and  _228
REMARK   97  A    between atoms: _227  and  _230
REMARK   98  A    between atoms: _230  and  _231
REMARK   99  A    between atoms: _233  and  _235
REMARK  100  A    between atoms: _235  and  _236
REMARK  101  A    between atoms: _235  and  _238
REMARK  102  A    between atoms: _238  and  _239
REMARK  103  A    between atoms: _241  and  _243
REMARK  104  A    between atoms: _243  and  _244
REMARK  105  A    between atoms: _243  and  _246
REMARK  106  A    between atoms: _246  and  _247
REMARK  107  A    between atoms: _249  and  _251
REMARK  108  A    between atoms: _251  and  _252
REMARK  109  A    between atoms: _251  and  _254
REMARK  110  A    between atoms: _254  and  _255
REMARK  111  A    between atoms: _261  and  _263
REMARK  112  A    between atoms: _263  and  _264
REMARK  113  A    between atoms: _263  and  _266
REMARK  114  A    between atoms: _266  and  _267
REMARK  115  A    between atoms: _270  and  _272
REMARK  116  A    between atoms: _272  and  _273
REMARK  117  A    between atoms: _272  and  _275
REMARK  118  A    between atoms: _275  and  _276
REMARK  119  A    between atoms: _279  and  _281
REMARK  120  A    between atoms: _281  and  _282
REMARK  121  A    between atoms: _281  and  _284
REMARK  122  A    between atoms: _284  and  _285
REMARK  123  A    between atoms: _288  and  _290
REMARK  124  A    between atoms: _290  and  _291
REMARK  125  A    between atoms: _293  and  _295
REMARK  126  A    between atoms: _295  and  _296
REMARK  127  A    between atoms: _295  and  _298
REMARK  128  A    between atoms: _298  and  _299
REMARK  129  A    between atoms: _302  and  _304
REMARK  130  A    between atoms: _304  and  _305
REMARK  131  A    between atoms: _304  and  _307
REMARK  132  A    between atoms: _307  and  _308
REMARK  133  A    between atoms: _311  and  _313
REMARK  134  A    between atoms: _313  and  _314
REMARK  135  A    between atoms: _316  and  _318
REMARK  136  A    between atoms: _318  and  _319
REMARK  137  A    between atoms: _318  and  _321
REMARK  138  A    between atoms: _321  and  _322
REMARK  139  A    between atoms: _325  and  _327
REMARK  140  A    between atoms: _327  and  _328
REMARK  141  A    between atoms: _331  and  _333
REMARK  142  A    between atoms: _333  and  _334
REMARK  143  A    between atoms: _333  and  _336
REMARK  144  A    between atoms: _336  and  _337
REMARK  145  A    between atoms: _343  and  _345
REMARK  146  A    between atoms: _345  and  _346
REMARK  147  A    between atoms: _345  and  _348
REMARK  148  A    between atoms: _348  and  _349
REMARK  149  A    between atoms: _352  and  _354
REMARK  150  A    between atoms: _354  and  _355
REMARK  151  A    between atoms: _354  and  _357
REMARK  152  A    between atoms: _357  and  _358
REMARK  153  A    between atoms: _363  and  _365
REMARK  154  A    between atoms: _365  and  _366
REMARK  155  A    between atoms: _365  and  _368
REMARK  156  A    between atoms: _368  and  _369
REMARK  157  A    between atoms: _372  and  _374
REMARK  158  A    between atoms: _374  and  _375
REMARK  159  A    between atoms: _374  and  _377
REMARK  160  A    between atoms: _377  and  _378
REMARK  161  A    between atoms: _378  and  _379
REMARK  162  A    between atoms: _384  and  _386
REMARK  163  A    between atoms: _386  and  _387
REMARK  164  A    between atoms: _389  and  _391
REMARK  165  A    between atoms: _391  and  _392
REMARK  166  A    between atoms: _391  and  _394
REMARK  167  A    between atoms: _394  and  _395
REMARK  168  A    between atoms: _401  and  _403
REMARK  169  A    between atoms: _403  and  _404
REMARK  170  A    between atoms: _403  and  _406
REMARK  171  A    between atoms: _406  and  _407
REMARK  172  A    between atoms: _417  and  _419
REMARK  173  A    between atoms: _419  and  _420
REMARK  174  A    between atoms: _419  and  _422
REMARK  175  A    between atoms: _422  and  _423
REMARK  176  A    between atoms: _426  and  _428
REMARK  177  A    between atoms: _428  and  _429
REMARK  178  A    between atoms: _432  and  _434
REMARK  179  A    between atoms: _434  and  _435
REMARK  180  A    between atoms: _434  and  _437
REMARK  181  A    between atoms: _437  and  _438
REMARK  182  A    between atoms: _441  and  _443
REMARK  183  A    between atoms: _443  and  _444
REMARK  184  A    between atoms: _443  and  _446
REMARK  185  A    between atoms: _446  and  _447
REMARK  186  A    between atoms: _450  and  _452
REMARK  187  A    between atoms: _452  and  _453
REMARK  188  A    between atoms: _455  and  _457
REMARK  189  A    between atoms: _457  and  _458
REMARK  190  A    between atoms: _457  and  _460
REMARK  191  A    between atoms: _460  and  _461
REMARK  192  A    between atoms: _464  and  _466
REMARK  193  A    between atoms: _466  and  _467
REMARK  194  A    between atoms: _466  and  _469
REMARK  195  A    between atoms: _469  and  _470
REMARK  196  A    between atoms: _473  and  _475
REMARK  197  A    between atoms: _475  and  _476
REMARK  198  A    between atoms: _475  and  _478
REMARK  199  A    between atoms: _478  and  _479
REMARK  200  A    between atoms: _482  and  _484
REMARK  201  A    between atoms: _484  and  _485
REMARK  202  A    between atoms: _484  and  _487
REMARK  203  A    between atoms: _487  and  _488
REMARK  204  A    between atoms: _491  and  _493
REMARK  205  A    between atoms: _493  and  _494
REMARK  206  A    between atoms: _493  and  _496
REMARK  207  A    between atoms: _496  and  _497
REMARK  208  A    between atoms: _502  and  _503
REMARK  209  A    between atoms: _505  and  _507
REMARK  210  A    between atoms: _507  and  _508
REMARK  211  A    between atoms: _507  and  _510
REMARK  212  A    between atoms: _510  and  _511
REMARK  213  A    between atoms: _517  and  _519
REMARK  214  A    between atoms: _519  and  _520
REMARK  215  A    between atoms: _519  and  _522
REMARK  216  A    between atoms: _522  and  _523
REMARK  217  A    between atoms: _526  and  _528
REMARK  218  A    between atoms: _528  and  _529
REMARK  219  A    between atoms: _531  and  _533
REMARK  220  A    between atoms: _533  and  _534
REMARK  221  A    between atoms: _533  and  _536
REMARK  222  A    between atoms: _536  and  _537
REMARK  223  A    between atoms: _540  and  _542
REMARK  224  A    between atoms: _542  and  _543
REMARK  225  A    between atoms: _542  and  _545
REMARK  226  A    between atoms: _545  and  _546
REMARK  227  A    between atoms: _551  and  _553
REMARK  228  A    between atoms: _553  and  _554
REMARK  229  A    between atoms: _553  and  _556
REMARK  230  A    between atoms: _556  and  _557
REMARK  231  A    between atoms: _560  and  _562
REMARK  232  A    between atoms: _562  and  _563
REMARK  233  A    between atoms: _562  and  _565
REMARK  234  A    between atoms: _565  and  _566
REMARK  235  A    between atoms: _572  and  _574
REMARK  236  A    between atoms: _574  and  _575
REMARK  237  A    between atoms: _577  and  _579
REMARK  238  A    between atoms: _579  and  _580
REMARK  239  A    between atoms: _579  and  _582
REMARK  240  A    between atoms: _582  and  _583
REMARK  241  A    between atoms: _586  and  _588
REMARK  242  A    between atoms: _588  and  _589
REMARK  243  A    between atoms: _588  and  _591
REMARK                            x       y       z     vdW  Elec       q    Type
REMARK                         _______ _______ _______ _____ _____    ______ ____
ROOT
ATOM      1  O   HOH     1       5.597   9.489  18.750  0.00  0.00    +0.000 OA
ENDROOT
TORSDOF 0
REMARK  Name = ../refined-set-2016/3pww/3pww_pocket.pdb
REMARK  243 active torsions:
REMARK  status: ('A' for Active; 'I' for Inactive)
REMARK    1  A    between atoms: _1  and  _3
REMARK    2  A    between atoms: _3  and  _4
REMARK    3  A    between atoms: _3  and  _6
REMARK    4  A    between atoms: _6  and  _7
REMARK    5  A    between atoms: _10  and  _12
REMARK    6  A    between atoms: _12  and  _13
REMARK    7  A    between atoms: _12  and  _15
REMARK    8  A    between atoms: _15  and  _16
REMARK    9  A    between atoms: _19  and  _21
REMARK   10  A    between atoms: _21  and  _22
REMARK   11  A    between atoms: _21  and  _24
REMARK   12  A    between atoms: _24  and  _25
REMARK   13  A    between atoms: _28  and  _30
REMARK   14  A    between atoms: _30  and  _31
REMARK   15  A    between atoms: _30  and  _33
REMARK   16  A    between atoms: _33  and  _34
REMARK   17  A    between atoms: _37  and  _39
REMARK   18  A    between atoms: _39  and  _40
REMARK   19  A    between atoms: _39  and  _42
REMARK   20  A    between atoms: _42  and  _43
REMARK   21  A    between atoms: _46  and  _48
REMARK   22  A    between atoms: _48  and  _49
REMARK   23  A    between atoms: _52  and  _54
REMARK   24  A    between atoms: _54  and  _55
REMARK   25  A    between atoms: _54  and  _57
REMARK   26  A    between atoms: _57  and  _58
REMARK   27  A    between atoms: _63  and  _64
REMARK   28  A    between atoms: _66  and  _68
REMARK   29  A    between atoms: _68  and  _69
REMARK   30  A    between atoms: _68  and  _71
REMARK   31  A    between atoms: _71  and  _72
REMARK   32  A    between atoms: _75  and  _77
REMARK   33  A    between atoms: _77  and  _78
REMARK   34  A    between atoms: _77  and  _80
REMARK   35  A    between atoms: _80  and  _81
REMARK   36  A    between atoms: _87  and  _89
REMARK   37  A    between atoms: _89  and  _90
REMARK   38  A    between atoms: _89  and  _92
REMARK   39  A    between atoms: _92  and  _93
REMARK   40  A    between atoms: _96  and  _98
REMARK   41  A    between atoms: _98  and  _99
REMARK   42  A    between atoms: _98  and  _101
REMARK   43  A    between atoms: _101  and  _102
REMARK   44  A    between atoms: _105  and  _107
REMARK   45  A    between atoms: _107  and  _108
REMARK   46  A    between atoms: _110  and  _112
REMARK   47  A    between atoms: _112  and  _113
REMARK   48  A    between atoms: _112  and  _115
REMARK   49  A    between atoms: _115  and  _116
REMARK   50  A    between atoms: _118  and  _120
REMARK   51  A    between atoms: _120  and  _121
REMARK   52  A    between atoms: _120  and  _123
REMARK   53  A    between atoms: _123  and  _124
REMARK   54  A    between atoms: _126  and  _128
REMARK   55  A    between atoms: _128  and  _129
REMARK   56  A    between atoms: _128  and  _131
REMARK   57  A    between atoms: _131  and  _132
REMARK   58  A    between atoms: _135  and  _137
REMARK   59  A    between atoms: _137  and  _138
REMARK   60  A    between atoms: _137  and  _140
REMARK   61  A    between atoms: _140  and  _141
REMARK   62  A    between atoms: _151  and  _153
REMARK   63  A    between atoms: _153  and  _154
REMARK   64  A    between atoms: _153  and  _156
REMARK   65  A    between atoms: _156  and  _157
REMARK   66  A    between atoms: _159  and  _161
REMARK   67  A    between atoms: _161  and  _162
REMARK   68  A    between atoms: _161  and  _164
REMARK   69  A    between atoms: _164  and  _165
REMARK   70  A    between atoms: _168  and  _170
REMARK   71  A    between atoms: _170  and  _171
REMARK   72  A    between atoms: _170  and  _173
REMARK   73  A    between atoms: _173  and  _174
REMARK   74  A    between atoms: _176  and  _178
REMARK   75  A    between atoms: _178  and  _179
REMARK   76  A    between atoms: _178  and  _181
REMARK   77  A    between atoms: _181  and  _182
REMARK   78  A    between atoms: _187  and  _188
REMARK   79  A    between atoms: _190  and  _192
REMARK   80  A    between atoms: _192  and  _193
REMARK   81  A    between atoms: _195  and  _197
REMARK   82  A    between atoms: _197  and  _198
REMARK   83  A    between atoms: _197  and  _200
REMARK   84  A    between atoms: _200  and  _201
REMARK   85  A    between atoms: _204  and  _206
REMARK   86  A    between atoms: _206  and  _207
REMARK   87  A    between atoms: _209  and  _211
REMARK   88  A    between atoms: _211  and  _212
REMARK   89  A    between atoms: _211  and  _214
REMARK   90  A    between atoms: _214  and  _215
REMARK   91  A    between atoms: _217  and  _219
REMARK   92  A    between atoms: _219  and  _220
REMARK   93  A    between atoms: _219  and  _222
REMARK   94  A    between atoms: _222  and  _223
REMARK   95  A    between atoms: _225  and  _227
REMARK   96  A    between atoms: _227  and  _228
REMARK   97  A    between atoms: _227  and  _230
REMARK   98  A    between atoms: _230  and  _231
REMARK   99  A    between atoms: _233  and  _235
REMARK  100  A    between atoms: _235  and  _236
REMARK  101  A    between atoms: _235  and  _238
REMARK  102  A    between atoms: _238  and  _239
REMARK  103  A    between atoms: _241  and  _243
REMARK  104  A    between atoms: _243  and  _244
REMARK  105  A    between atoms: _243  and  _246
REMARK  106  A    between atoms: _246  and  _247
REMARK  107  A    between atoms: _249  and  _251
REMARK  108  A    between atoms: _251  and  _252
REMARK  109  A    between atoms: _251  and  _254
REMARK  110  A    between atoms: _254  and  _255
REMARK  111  A    between atoms: _261  and  _263
REMARK  112  A    between atoms: _263  and  _264
REMARK  113  A    between atoms: _263  and  _266
REMARK  114  A    between atoms: _266  and  _267
REMARK  115  A    between atoms: _270  and  _272
REMARK  116  A    between atoms: _272  and  _273
REMARK  117  A    between atoms: _272  and  _275
REMARK  118  A    between atoms: _275  and  _276
REMARK  119  A    between atoms: _279  and  _281
REMARK  120  A    between atoms: _281  and  _282
REMARK  121  A    between atoms: _281  and  _284
REMARK  122  A    between atoms: _284  and  _285
REMARK  123  A    between atoms: _288  and  _290
REMARK  124  A    between atoms: _290  and  _291
REMARK  125  A    between atoms: _293  and  _295
REMARK  126  A    between atoms: _295  and  _296
REMARK  127  A    between atoms: _295  and  _298
REMARK  128  A    between atoms: _298  and  _299
REMARK  129  A    between atoms: _302  and  _304
REMARK  130  A    between atoms: _304  and  _305
REMARK  131  A    between atoms: _304  and  _307
REMARK  132  A    between atoms: _307  and  _308
REMARK  133  A    between atoms: _311  and  _313
REMARK  134  A    between atoms: _313  and  _314
REMARK  135  A    between atoms: _316  and  _318
REMARK  136  A    between atoms: _318  and  _319
REMARK  137  A    between atoms: _318  and  _321
REMARK  138  A    between atoms: _321  and  _322
REMARK  139  A    between atoms: _325  and  _327
REMARK  140  A    between atoms: _327  and  _328
REMARK  141  A    between atoms: _331  and  _333
REMARK  142  A    between atoms: _333  and  _334
REMARK  143  A    between atoms: _333  and  _336
REMARK  144  A    between atoms: _336  and  _337
REMARK  145  A    between atoms: _343  and  _345
REMARK  146  A    between atoms: _345  and  _346
REMARK  147  A    between atoms: _345  and  _348
REMARK  148  A    between atoms: _348  and  _349
REMARK  149  A    between atoms: _352  and  _354
REMARK  150  A    between atoms: _354  and  _355
REMARK  151  A    between atoms: _354  and  _357
REMARK  152  A    between atoms: _357  and  _358
REMARK  153  A    between atoms: _363  and  _365
REMARK  154  A    between atoms: _365  and  _366
REMARK  155  A    between atoms: _365  and  _368
REMARK  156  A    between atoms: _368  and  _369
REMARK  157  A    between atoms: _372  and  _374
REMARK  158  A    between atoms: _374  and  _375
REMARK  159  A    between atoms: _374  and  _377
REMARK  160  A    between atoms: _377  and  _378
REMARK  161  A    between atoms: _378  and  _379
REMARK  162  A    between atoms: _384  and  _386
REMARK  163  A    between atoms: _386  and  _387
REMARK  164  A    between atoms: _389  and  _391
REMARK  165  A    between atoms: _391  and  _392
REMARK  166  A    between atoms: _391  and  _394
REMARK  167  A    between atoms: _394  and  _395
REMARK  168  A    between atoms: _401  and  _403
REMARK  169  A    between atoms: _403  and  _404
REMARK  170  A    between atoms: _403  and  _406
REMARK  171  A    between atoms: _406  and  _407
REMARK  172  A    between atoms: _417  and  _419
REMARK  173  A    between atoms: _419  and  _420
REMARK  174  A    between atoms: _419  and  _422
REMARK  175  A    between atoms: _422  and  _423
REMARK  176  A    between atoms: _426  and  _428
REMARK  177  A    between atoms: _428  and  _429
REMARK  178  A    between atoms: _432  and  _434
REMARK  179  A    between atoms: _434  and  _435
REMARK  180  A    between atoms: _434  and  _437
REMARK  181  A    between atoms: _437  and  _438
REMARK  182  A    between atoms: _441  and  _443
REMARK  183  A    between atoms: _443  and  _444
REMARK  184  A    between atoms: _443  and  _446
REMARK  185  A    between atoms: _446  and  _447
REMARK  186  A    between atoms: _450  and  _452
REMARK  187  A    between atoms: _452  and  _453
REMARK  188  A    between atoms: _455  and  _457
REMARK  189  A    between atoms: _457  and  _458
REMARK  190  A    between atoms: _457  and  _460
REMARK  191  A    between atoms: _460  and  _461
REMARK  192  A    between atoms: _464  and  _466
REMARK  193  A    between atoms: _466  and  _467
REMARK  194  A    between atoms: _466  and  _469
REMARK  195  A    between atoms: _469  and  _470
REMARK  196  A    between atoms: _473  and  _475
REMARK  197  A    between atoms: _475  and  _476
REMARK  198  A    between atoms: _475  and  _478
REMARK  199  A    between atoms: _478  and  _479
REMARK  200  A    between atoms: _482  and  _484
REMARK  201  A    between atoms: _484  and  _485
REMARK  202  A    between atoms: _484  and  _487
REMARK  203  A    between atoms: _487  and  _488
REMARK  204  A    between atoms: _491  and  _493
REMARK  205  A    between atoms: _493  and  _494
REMARK  206  A    between atoms: _493  and  _496
REMARK  207  A    between atoms: _496  and  _497
REMARK  208  A    between atoms: _502  and  _503
REMARK  209  A    between atoms: _505  and  _507
REMARK  210  A    between atoms: _507  and  _508
REMARK  211  A    between atoms: _507  and  _510
REMARK  212  A    between atoms: _510  and  _511
REMARK  213  A    between atoms: _517  and  _519
REMARK  214  A    between atoms: _519  and  _520
REMARK  215  A    between atoms: _519  and  _522
REMARK  216  A    between atoms: _522  and  _523
REMARK  217  A    between atoms: _526  and  _528
REMARK  218  A    between atoms: _528  and  _529
REMARK  219  A    between atoms: _531  and  _533
REMARK  220  A    between atoms: _533  and  _534
REMARK  221  A    between atoms: _533  and  _536
REMARK  222  A    between atoms: _536  and  _537
REMARK  223  A    between atoms: _540  and  _542
REMARK  224  A    between atoms: _542  and  _543
REMARK  225  A    between atoms: _542  and  _545
REMARK  226  A    between atoms: _545  and  _546
REMARK  227  A    between atoms: _551  and  _553
REMARK  228  A    between atoms: _553  and  _554
REMARK  229  A    between atoms: _553  and  _556
REMARK  230  A    between atoms: _556  and  _557
REMARK  231  A    between atoms: _560  and  _562
REMARK  232  A    between atoms: _562  and  _563
REMARK  233  A    between atoms: _562  and  _565
REMARK  234  A    between atoms: _565  and  _566
REMARK  235  A    between atoms: _572  and  _574
REMARK  236  A    between atoms: _574  and  _575
REMARK  237  A    between atoms: _577  and  _579
REMARK  238  A    between atoms: _579  and  _580
REMARK  239  A    between atoms: _579  and  _582
REMARK  240  A    between atoms: _582  and  _583
REMARK  241  A    between atoms: _586  and  _588
REMARK  242  A    between atoms: _588  and  _589
REMARK  243  A    between atoms: _588  and  _591
REMARK                            x       y       z     vdW  Elec       q    Type
REMARK                         _______ _______ _______ _____ _____    ______ ____
ROOT
ATOM      1  O   HOH     1      -5.433   2.843   9.834  0.00  0.00    +0.000 OA
ENDROOT
TORSDOF 0
REMARK  Name = ../refined-set-2016/3pww/3pww_pocket.pdb
REMARK  243 active torsions:
REMARK  status: ('A' for Active; 'I' for Inactive)
REMARK    1  A    between atoms: _1  and  _3
REMARK    2  A    between atoms: _3  and  _4
REMARK    3  A    between atoms: _3  and  _6
REMARK    4  A    between atoms: _6  and  _7
REMARK    5  A    between atoms: _10  and  _12
REMARK    6  A    between atoms: _12  and  _13
REMARK    7  A    between atoms: _12  and  _15
REMARK    8  A    between atoms: _15  and  _16
REMARK    9  A    between atoms: _19  and  _21
REMARK   10  A    between atoms: _21  and  _22
REMARK   11  A    between atoms: _21  and  _24
REMARK   12  A    between atoms: _24  and  _25
REMARK   13  A    between atoms: _28  and  _30
REMARK   14  A    between atoms: _30  and  _31
REMARK   15  A    between atoms: _30  and  _33
REMARK   16  A    between atoms: _33  and  _34
REMARK   17  A    between atoms: _37  and  _39
REMARK   18  A    between atoms: _39  and  _40
REMARK   19  A    between atoms: _39  and  _42
REMARK   20  A    between atoms: _42  and  _43
REMARK   21  A    between atoms: _46  and  _48
REMARK   22  A    between atoms: _48  and  _49
REMARK   23  A    between atoms: _52  and  _54
REMARK   24  A    between atoms: _54  and  _55
REMARK   25  A    between atoms: _54  and  _57
REMARK   26  A    between atoms: _57  and  _58
REMARK   27  A    between atoms: _63  and  _64
REMARK   28  A    between atoms: _66  and  _68
REMARK   29  A    between atoms: _68  and  _69
REMARK   30  A    between atoms: _68  and  _71
REMARK   31  A    between atoms: _71  and  _72
REMARK   32  A    between atoms: _75  and  _77
REMARK   33  A    between atoms: _77  and  _78
REMARK   34  A    between atoms: _77  and  _80
REMARK   35  A    between atoms: _80  and  _81
REMARK   36  A    between atoms: _87  and  _89
REMARK   37  A    between atoms: _89  and  _90
REMARK   38  A    between atoms: _89  and  _92
REMARK   39  A    between atoms: _92  and  _93
REMARK   40  A    between atoms: _96  and  _98
REMARK   41  A    between atoms: _98  and  _99
REMARK   42  A    between atoms: _98  and  _101
REMARK   43  A    between atoms: _101  and  _102
REMARK   44  A    between atoms: _105  and  _107
REMARK   45  A    between atoms: _107  and  _108
REMARK   46  A    between atoms: _110  and  _112
REMARK   47  A    between atoms: _112  and  _113
REMARK   48  A    between atoms: _112  and  _115
REMARK   49  A    between atoms: _115  and  _116
REMARK   50  A    between atoms: _118  and  _120
REMARK   51  A    between atoms: _120  and  _121
REMARK   52  A    between atoms: _120  and  _123
REMARK   53  A    between atoms: _123  and  _124
REMARK   54  A    between atoms: _126  and  _128
REMARK   55  A    between atoms: _128  and  _129
REMARK   56  A    between atoms: _128  and  _131
REMARK   57  A    between atoms: _131  and  _132
REMARK   58  A    between atoms: _135  and  _137
REMARK   59  A    between atoms: _137  and  _138
REMARK   60  A    between atoms: _137  and  _140
REMARK   61  A    between atoms: _140  and  _141
REMARK   62  A    between atoms: _151  and  _153
REMARK   63  A    between atoms: _153  and  _154
REMARK   64  A    between atoms: _153  and  _156
REMARK   65  A    between atoms: _156  and  _157
REMARK   66  A    between atoms: _159  and  _161
REMARK   67  A    between atoms: _161  and  _162
REMARK   68  A    between atoms: _161  and  _164
REMARK   69  A    between atoms: _164  and  _165
REMARK   70  A    between atoms: _168  and  _170
REMARK   71  A    between atoms: _170  and  _171
REMARK   72  A    between atoms: _170  and  _173
REMARK   73  A    between atoms: _173  and  _174
REMARK   74  A    between atoms: _176  and  _178
REMARK   75  A    between atoms: _178  and  _179
REMARK   76  A    between atoms: _178  and  _181
REMARK   77  A    between atoms: _181  and  _182
REMARK   78  A    between atoms: _187  and  _188
REMARK   79  A    between atoms: _190  and  _192
REMARK   80  A    between atoms: _192  and  _193
REMARK   81  A    between atoms: _195  and  _197
REMARK   82  A    between atoms: _197  and  _198
REMARK   83  A    between atoms: _197  and  _200
REMARK   84  A    between atoms: _200  and  _201
REMARK   85  A    between atoms: _204  and  _206
REMARK   86  A    between atoms: _206  and  _207
REMARK   87  A    between atoms: _209  and  _211
REMARK   88  A    between atoms: _211  and  _212
REMARK   89  A    between atoms: _211  and  _214
REMARK   90  A    between atoms: _214  and  _215
REMARK   91  A    between atoms: _217  and  _219
REMARK   92  A    between atoms: _219  and  _220
REMARK   93  A    between atoms: _219  and  _222
REMARK   94  A    between atoms: _222  and  _223
REMARK   95  A    between atoms: _225  and  _227
REMARK   96  A    between atoms: _227  and  _228
REMARK   97  A    between atoms: _227  and  _230
REMARK   98  A    between atoms: _230  and  _231
REMARK   99  A    between atoms: _233  and  _235
REMARK  100  A    between atoms: _235  and  _236
REMARK  101  A    between atoms: _235  and  _238
REMARK  102  A    between atoms: _238  and  _239
REMARK  103  A    between atoms: _241  and  _243
REMARK  104  A    between atoms: _243  and  _244
REMARK  105  A    between atoms: _243  and  _246
REMARK  106  A    between atoms: _246  and  _247
REMARK  107  A    between atoms: _249  and  _251
REMARK  108  A    between atoms: _251  and  _252
REMARK  109  A    between atoms: _251  and  _254
REMARK  110  A    between atoms: _254  and  _255
REMARK  111  A    between atoms: _261  and  _263
REMARK  112  A    between atoms: _263  and  _264
REMARK  113  A    between atoms: _263  and  _266
REMARK  114  A    between atoms: _266  and  _267
REMARK  115  A    between atoms: _270  and  _272
REMARK  116  A    between atoms: _272  and  _273
REMARK  117  A    between atoms: _272  and  _275
REMARK  118  A    between atoms: _275  and  _276
REMARK  119  A    between atoms: _279  and  _281
REMARK  120  A    between atoms: _281  and  _282
REMARK  121  A    between atoms: _281  and  _284
REMARK  122  A    between atoms: _284  and  _285
REMARK  123  A    between atoms: _288  and  _290
REMARK  124  A    between atoms: _290  and  _291
REMARK  125  A    between atoms: _293  and  _295
REMARK  126  A    between atoms: _295  and  _296
REMARK  127  A    between atoms: _295  and  _298
REMARK  128  A    between atoms: _298  and  _299
REMARK  129  A    between atoms: _302  and  _304
REMARK  130  A    between atoms: _304  and  _305
REMARK  131  A    between atoms: _304  and  _307
REMARK  132  A    between atoms: _307  and  _308
REMARK  133  A    between atoms: _311  and  _313
REMARK  134  A    between atoms: _313  and  _314
REMARK  135  A    between atoms: _316  and  _318
REMARK  136  A    between atoms: _318  and  _319
REMARK  137  A    between atoms: _318  and  _321
REMARK  138  A    between atoms: _321  and  _322
REMARK  139  A    between atoms: _325  and  _327
REMARK  140  A    between atoms: _327  and  _328
REMARK  141  A    between atoms: _331  and  _333
REMARK  142  A    between atoms: _333  and  _334
REMARK  143  A    between atoms: _333  and  _336
REMARK  144  A    between atoms: _336  and  _337
REMARK  145  A    between atoms: _343  and  _345
REMARK  146  A    between atoms: _345  and  _346
REMARK  147  A    between atoms: _345  and  _348
REMARK  148  A    between atoms: _348  and  _349
REMARK  149  A    between atoms: _352  and  _354
REMARK  150  A    between atoms: _354  and  _355
REMARK  151  A    between atoms: _354  and  _357
REMARK  152  A    between atoms: _357  and  _358
REMARK  153  A    between atoms: _363  and  _365
REMARK  154  A    between atoms: _365  and  _366
REMARK  155  A    between atoms: _365  and  _368
REMARK  156  A    between atoms: _368  and  _369
REMARK  157  A    between atoms: _372  and  _374
REMARK  158  A    between atoms: _374  and  _375
REMARK  159  A    between atoms: _374  and  _377
REMARK  160  A    between atoms: _377  and  _378
REMARK  161  A    between atoms: _378  and  _379
REMARK  162  A    between atoms: _384  and  _386
REMARK  163  A    between atoms: _386  and  _387
REMARK  164  A    between atoms: _389  and  _391
REMARK  165  A    between atoms: _391  and  _392
REMARK  166  A    between atoms: _391  and  _394
REMARK  167  A    between atoms: _394  and  _395
REMARK  168  A    between atoms: _401  and  _403
REMARK  169  A    between atoms: _403  and  _404
REMARK  170  A    between atoms: _403  and  _406
REMARK  171  A    between atoms: _406  and  _407
REMARK  172  A    between atoms: _417  and  _419
REMARK  173  A    between atoms: _419  and  _420
REMARK  174  A    between atoms: _419  and  _422
REMARK  175  A    between atoms: _422  and  _423
REMARK  176  A    between atoms: _426  and  _428
REMARK  177  A    between atoms: _428  and  _429
REMARK  178  A    between atoms: _432  and  _434
REMARK  179  A    between atoms: _434  and  _435
REMARK  180  A    between atoms: _434  and  _437
REMARK  181  A    between atoms: _437  and  _438
REMARK  182  A    between atoms: _441  and  _443
REMARK  183  A    between atoms: _443  and  _444
REMARK  184  A    between atoms: _443  and  _446
REMARK  185  A    between atoms: _446  and  _447
REMARK  186  A    between atoms: _450  and  _452
REMARK  187  A    between atoms: _452  and  _453
REMARK  188  A    between atoms: _455  and  _457
REMARK  189  A    between atoms: _457  and  _458
REMARK  190  A    between atoms: _457  and  _460
REMARK  191  A    between atoms: _460  and  _461
REMARK  192  A    between atoms: _464  and  _466
REMARK  193  A    between atoms: _466  and  _467
REMARK  194  A    between atoms: _466  and  _469
REMARK  195  A    between atoms: _469  and  _470
REMARK  196  A    between atoms: _473  and  _475
REMARK  197  A    between atoms: _475  and  _476
REMARK  198  A    between atoms: _475  and  _478
REMARK  199  A    between atoms: _478  and  _479
REMARK  200  A    between atoms: _482  and  _484
REMARK  201  A    between atoms: _484  and  _485
REMARK  202  A    between atoms: _484  and  _487
REMARK  203  A    between atoms: _487  and  _488
REMARK  204  A    between atoms: _491  and  _493
REMARK  205  A    between atoms: _493  and  _494
REMARK  206  A    between atoms: _493  and  _496
REMARK  207  A    between atoms: _496  and  _497
REMARK  208  A    between atoms: _502  and  _503
REMARK  209  A    between atoms: _505  and  _507
REMARK  210  A    between atoms: _507  and  _508
REMARK  211  A    between atoms: _507  and  _510
REMARK  212  A    between atoms: _510  and  _511
REMARK  213  A    between atoms: _517  and  _519
REMARK  214  A    between atoms: _519  and  _520
REMARK  215  A    between atoms: _519  and  _522
REMARK  216  A    between atoms: _522  and  _523
REMARK  217  A    between atoms: _526  and  _528
REMARK  218  A    between atoms: _528  and  _529
REMARK  219  A    between atoms: _531  and  _533
REMARK  220  A    between atoms: _533  and  _534
REMARK  221  A    between atoms: _533  and  _536
REMARK  222  A    between atoms: _536  and  _537
REMARK  223  A    between atoms: _540  and  _542
REMARK  224  A    between atoms: _542  and  _543
REMARK  225  A    between atoms: _542  and  _545
REMARK  226  A    between atoms: _545  and  _546
REMARK  227  A    between atoms: _551  and  _553
REMARK  228  A    between atoms: _553  and  _554
REMARK  229  A    between atoms: _553  and  _556
REMARK  230  A    between atoms: _556  and  _557
REMARK  231  A    between atoms: _560  and  _562
REMARK  232  A    between atoms: _562  and  _563
REMARK  233  A    between atoms: _562  and  _565
REMARK  234  A    between atoms: _565  and  _566
REMARK  235  A    between atoms: _572  and  _574
REMARK  236  A    between atoms: _574  and  _575
REMARK  237  A    between atoms: _577  and  _579
REMARK  238  A    between atoms: _579  and  _580
REMARK  239  A    between atoms: _579  and  _582
REMARK  240  A    between atoms: _582  and  _583
REMARK  241  A    between atoms: _586  and  _588
REMARK  242  A    between atoms: _588  and  _589
REMARK  243  A    between atoms: _588  and  _591
REMARK                            x       y       z     vdW  Elec       q    Type
REMARK                         _______ _______ _______ _____ _____    ______ ____
ROOT
ATOM      1  O   HOH     1     -11.084  -1.613  10.540  0.00  0.00    +0.000 OA
ENDROOT
TORSDOF 0
REMARK  Name = ../refined-set-2016/3pww/3pww_pocket.pdb
REMARK  243 active torsions:
REMARK  status: ('A' for Active; 'I' for Inactive)
REMARK    1  A    between atoms: _1  and  _3
REMARK    2  A    between atoms: _3  and  _4
REMARK    3  A    between atoms: _3  and  _6
REMARK    4  A    between atoms: _6  and  _7
REMARK    5  A    between atoms: _10  and  _12
REMARK    6  A    between atoms: _12  and  _13
REMARK    7  A    between atoms: _12  and  _15
REMARK    8  A    between atoms: _15  and  _16
REMARK    9  A    between atoms: _19  and  _21
REMARK   10  A    between atoms: _21  and  _22
REMARK   11  A    between atoms: _21  and  _24
REMARK   12  A    between atoms: _24  and  _25
REMARK   13  A    between atoms: _28  and  _30
REMARK   14  A    between atoms: _30  and  _31
REMARK   15  A    between atoms: _30  and  _33
REMARK   16  A    between atoms: _33  and  _34
REMARK   17  A    between atoms: _37  and  _39
REMARK   18  A    between atoms: _39  and  _40
REMARK   19  A    between atoms: _39  and  _42
REMARK   20  A    between atoms: _42  and  _43
REMARK   21  A    between atoms: _46  and  _48
REMARK   22  A    between atoms: _48  and  _49
REMARK   23  A    between atoms: _52  and  _54
REMARK   24  A    between atoms: _54  and  _55
REMARK   25  A    between atoms: _54  and  _57
REMARK   26  A    between atoms: _57  and  _58
REMARK   27  A    between atoms: _63  and  _64
REMARK   28  A    between atoms: _66  and  _68
REMARK   29  A    between atoms: _68  and  _69
REMARK   30  A    between atoms: _68  and  _71
REMARK   31  A    between atoms: _71  and  _72
REMARK   32  A    between atoms: _75  and  _77
REMARK   33  A    between atoms: _77  and  _78
REMARK   34  A    between atoms: _77  and  _80
REMARK   35  A    between atoms: _80  and  _81
REMARK   36  A    between atoms: _87  and  _89
REMARK   37  A    between atoms: _89  and  _90
REMARK   38  A    between atoms: _89  and  _92
REMARK   39  A    between atoms: _92  and  _93
REMARK   40  A    between atoms: _96  and  _98
REMARK   41  A    between atoms: _98  and  _99
REMARK   42  A    between atoms: _98  and  _101
REMARK   43  A    between atoms: _101  and  _102
REMARK   44  A    between atoms: _105  and  _107
REMARK   45  A    between atoms: _107  and  _108
REMARK   46  A    between atoms: _110  and  _112
REMARK   47  A    between atoms: _112  and  _113
REMARK   48  A    between atoms: _112  and  _115
REMARK   49  A    between atoms: _115  and  _116
REMARK   50  A    between atoms: _118  and  _120
REMARK   51  A    between atoms: _120  and  _121
REMARK   52  A    between atoms: _120  and  _123
REMARK   53  A    between atoms: _123  and  _124
REMARK   54  A    between atoms: _126  and  _128
REMARK   55  A    between atoms: _128  and  _129
REMARK   56  A    between atoms: _128  and  _131
REMARK   57  A    between atoms: _131  and  _132
REMARK   58  A    between atoms: _135  and  _137
REMARK   59  A    between atoms: _137  and  _138
REMARK   60  A    between atoms: _137  and  _140
REMARK   61  A    between atoms: _140  and  _141
REMARK   62  A    between atoms: _151  and  _153
REMARK   63  A    between atoms: _153  and  _154
REMARK   64  A    between atoms: _153  and  _156
REMARK   65  A    between atoms: _156  and  _157
REMARK   66  A    between atoms: _159  and  _161
REMARK   67  A    between atoms: _161  and  _162
REMARK   68  A    between atoms: _161  and  _164
REMARK   69  A    between atoms: _164  and  _165
REMARK   70  A    between atoms: _168  and  _170
REMARK   71  A    between atoms: _170  and  _171
REMARK   72  A    between atoms: _170  and  _173
REMARK   73  A    between atoms: _173  and  _174
REMARK   74  A    between atoms: _176  and  _178
REMARK   75  A    between atoms: _178  and  _179
REMARK   76  A    between atoms: _178  and  _181
REMARK   77  A    between atoms: _181  and  _182
REMARK   78  A    between atoms: _187  and  _188
REMARK   79  A    between atoms: _190  and  _192
REMARK   80  A    between atoms: _192  and  _193
REMARK   81  A    between atoms: _195  and  _197
REMARK   82  A    between atoms: _197  and  _198
REMARK   83  A    between atoms: _197  and  _200
REMARK   84  A    between atoms: _200  and  _201
REMARK   85  A    between atoms: _204  and  _206
REMARK   86  A    between atoms: _206  and  _207
REMARK   87  A    between atoms: _209  and  _211
REMARK   88  A    between atoms: _211  and  _212
REMARK   89  A    between atoms: _211  and  _214
REMARK   90  A    between atoms: _214  and  _215
REMARK   91  A    between atoms: _217  and  _219
REMARK   92  A    between atoms: _219  and  _220
REMARK   93  A    between atoms: _219  and  _222
REMARK   94  A    between atoms: _222  and  _223
REMARK   95  A    between atoms: _225  and  _227
REMARK   96  A    between atoms: _227  and  _228
REMARK   97  A    between atoms: _227  and  _230
REMARK   98  A    between atoms: _230  and  _231
REMARK   99  A    between atoms: _233  and  _235
REMARK  100  A    between atoms: _235  and  _236
REMARK  101  A    between atoms: _235  and  _238
REMARK  102  A    between atoms: _238  and  _239
REMARK  103  A    between atoms: _241  and  _243
REMARK  104  A    between atoms: _243  and  _244
REMARK  105  A    between atoms: _243  and  _246
REMARK  106  A    between atoms: _246  and  _247
REMARK  107  A    between atoms: _249  and  _251
REMARK  108  A    between atoms: _251  and  _252
REMARK  109  A    between atoms: _251  and  _254
REMARK  110  A    between atoms: _254  and  _255
REMARK  111  A    between atoms: _261  and  _263
REMARK  112  A    between atoms: _263  and  _264
REMARK  113  A    between atoms: _263  and  _266
REMARK  114  A    between atoms: _266  and  _267
REMARK  115  A    between atoms: _270  and  _272
REMARK  116  A    between atoms: _272  and  _273
REMARK  117  A    between atoms: _272  and  _275
REMARK  118  A    between atoms: _275  and  _276
REMARK  119  A    between atoms: _279  and  _281
REMARK  120  A    between atoms: _281  and  _282
REMARK  121  A    between atoms: _281  and  _284
REMARK  122  A    between atoms: _284  and  _285
REMARK  123  A    between atoms: _288  and  _290
REMARK  124  A    between atoms: _290  and  _291
REMARK  125  A    between atoms: _293  and  _295
REMARK  126  A    between atoms: _295  and  _296
REMARK  127  A    between atoms: _295  and  _298
REMARK  128  A    between atoms: _298  and  _299
REMARK  129  A    between atoms: _302  and  _304
REMARK  130  A    between atoms: _304  and  _305
REMARK  131  A    between atoms: _304  and  _307
REMARK  132  A    between atoms: _307  and  _308
REMARK  133  A    between atoms: _311  and  _313
REMARK  134  A    between atoms: _313  and  _314
REMARK  135  A    between atoms: _316  and  _318
REMARK  136  A    between atoms: _318  and  _319
REMARK  137  A    between atoms: _318  and  _321
REMARK  138  A    between atoms: _321  and  _322
REMARK  139  A    between atoms: _325  and  _327
REMARK  140  A    between atoms: _327  and  _328
REMARK  141  A    between atoms: _331  and  _333
REMARK  142  A    between atoms: _333  and  _334
REMARK  143  A    between atoms: _333  and  _336
REMARK  144  A    between atoms: _336  and  _337
REMARK  145  A    between atoms: _343  and  _345
REMARK  146  A    between atoms: _345  and  _346
REMARK  147  A    between atoms: _345  and  _348
REMARK  148  A    between atoms: _348  and  _349
REMARK  149  A    between atoms: _352  and  _354
REMARK  150  A    between atoms: _354  and  _355
REMARK  151  A    between atoms: _354  and  _357
REMARK  152  A    between atoms: _357  and  _358
REMARK  153  A    between atoms: _363  and  _365
REMARK  154  A    between atoms: _365  and  _366
REMARK  155  A    between atoms: _365  and  _368
REMARK  156  A    between atoms: _368  and  _369
REMARK  157  A    between atoms: _372  and  _374
REMARK  158  A    between atoms: _374  and  _375
REMARK  159  A    between atoms: _374  and  _377
REMARK  160  A    between atoms: _377  and  _378
REMARK  161  A    between atoms: _378  and  _379
REMARK  162  A    between atoms: _384  and  _386
REMARK  163  A    between atoms: _386  and  _387
REMARK  164  A    between atoms: _389  and  _391
REMARK  165  A    between atoms: _391  and  _392
REMARK  166  A    between atoms: _391  and  _394
REMARK  167  A    between atoms: _394  and  _395
REMARK  168  A    between atoms: _401  and  _403
REMARK  169  A    between atoms: _403  and  _404
REMARK  170  A    between atoms: _403  and  _406
REMARK  171  A    between atoms: _406  and  _407
REMARK  172  A    between atoms: _417  and  _419
REMARK  173  A    between atoms: _419  and  _420
REMARK  174  A    between atoms: _419  and  _422
REMARK  175  A    between atoms: _422  and  _423
REMARK  176  A    between atoms: _426  and  _428
REMARK  177  A    between atoms: _428  and  _429
REMARK  178  A    between atoms: _432  and  _434
REMARK  179  A    between atoms: _434  and  _435
REMARK  180  A    between atoms: _434  and  _437
REMARK  181  A    between atoms: _437  and  _438
REMARK  182  A    between atoms: _441  and  _443
REMARK  183  A    between atoms: _443  and  _444
REMARK  184  A    between atoms: _443  and  _446
REMARK  185  A    between atoms: _446  and  _447
REMARK  186  A    between atoms: _450  and  _452
REMARK  187  A    between atoms: _452  and  _453
REMARK  188  A    between atoms: _455  and  _457
REMARK  189  A    between atoms: _457  and  _458
REMARK  190  A    between atoms: _457  and  _460
REMARK  191  A    between atoms: _460  and  _461
REMARK  192  A    between atoms: _464  and  _466
REMARK  193  A    between atoms: _466  and  _467
REMARK  194  A    between atoms: _466  and  _469
REMARK  195  A    between atoms: _469  and  _470
REMARK  196  A    between atoms: _473  and  _475
REMARK  197  A    between atoms: _475  and  _476
REMARK  198  A    between atoms: _475  and  _478
REMARK  199  A    between atoms: _478  and  _479
REMARK  200  A    between atoms: _482  and  _484
REMARK  201  A    between atoms: _484  and  _485
REMARK  202  A    between atoms: _484  and  _487
REMARK  203  A    between atoms: _487  and  _488
REMARK  204  A    between atoms: _491  and  _493
REMARK  205  A    between atoms: _493  and  _494
REMARK  206  A    between atoms: _493  and  _496
REMARK  207  A    between atoms: _496  and  _497
REMARK  208  A    between atoms: _502  and  _503
REMARK  209  A    between atoms: _505  and  _507
REMARK  210  A    between atoms: _507  and  _508
REMARK  211  A    between atoms: _507  and  _510
REMARK  212  A    between atoms: _510  and  _511
REMARK  213  A    between atoms: _517  and  _519
REMARK  214  A    between atoms: _519  and  _520
REMARK  215  A    between atoms: _519  and  _522
REMARK  216  A    between atoms: _522  and  _523
REMARK  217  A    between atoms: _526  and  _528
REMARK  218  A    between atoms: _528  and  _529
REMARK  219  A    between atoms: _531  and  _533
REMARK  220  A    between atoms: _533  and  _534
REMARK  221  A    between atoms: _533  and  _536
REMARK  222  A    between atoms: _536  and  _537
REMARK  223  A    between atoms: _540  and  _542
REMARK  224  A    between atoms: _542  and  _543
REMARK  225  A    between atoms: _542  and  _545
REMARK  226  A    between atoms: _545  and  _546
REMARK  227  A    between atoms: _551  and  _553
REMARK  228  A    between atoms: _553  and  _554
REMARK  229  A    between atoms: _553  and  _556
REMARK  230  A    between atoms: _556  and  _557
REMARK  231  A    between atoms: _560  and  _562
REMARK  232  A    between atoms: _562  and  _563
REMARK  233  A    between atoms: _562  and  _565
REMARK  234  A    between atoms: _565  and  _566
REMARK  235  A    between atoms: _572  and  _574
REMARK  236  A    between atoms: _574  and  _575
REMARK  237  A    between atoms: _577  and  _579
REMARK  238  A    between atoms: _579  and  _580
REMARK  239  A    between atoms: _579  and  _582
REMARK  240  A    between atoms: _582  and  _583
REMARK  241  A    between atoms: _586  and  _588
REMARK  242  A    between atoms: _588  and  _589
REMARK  243  A    between atoms: _588  and  _591
REMARK                            x       y       z     vdW  Elec       q    Type
REMARK                         _______ _______ _______ _____ _____    ______ ____
ROOT
ATOM      1  O   HOH     1     -11.279  -6.493   0.124  0.00  0.00    +0.000 OA
ENDROOT
TORSDOF 0
REMARK  Name = ../refined-set-2016/3pww/3pww_pocket.pdb
REMARK  243 active torsions:
REMARK  status: ('A' for Active; 'I' for Inactive)
REMARK    1  A    between atoms: _1  and  _3
REMARK    2  A    between atoms: _3  and  _4
REMARK    3  A    between atoms: _3  and  _6
REMARK    4  A    between atoms: _6  and  _7
REMARK    5  A    between atoms: _10  and  _12
REMARK    6  A    between atoms: _12  and  _13
REMARK    7  A    between atoms: _12  and  _15
REMARK    8  A    between atoms: _15  and  _16
REMARK    9  A    between atoms: _19  and  _21
REMARK   10  A    between atoms: _21  and  _22
REMARK   11  A    between atoms: _21  and  _24
REMARK   12  A    between atoms: _24  and  _25
REMARK   13  A    between atoms: _28  and  _30
REMARK   14  A    between atoms: _30  and  _31
REMARK   15  A    between atoms: _30  and  _33
REMARK   16  A    between atoms: _33  and  _34
REMARK   17  A    between atoms: _37  and  _39
REMARK   18  A    between atoms: _39  and  _40
REMARK   19  A    between atoms: _39  and  _42
REMARK   20  A    between atoms: _42  and  _43
REMARK   21  A    between atoms: _46  and  _48
REMARK   22  A    between atoms: _48  and  _49
REMARK   23  A    between atoms: _52  and  _54
REMARK   24  A    between atoms: _54  and  _55
REMARK   25  A    between atoms: _54  and  _57
REMARK   26  A    between atoms: _57  and  _58
REMARK   27  A    between atoms: _63  and  _64
REMARK   28  A    between atoms: _66  and  _68
REMARK   29  A    between atoms: _68  and  _69
REMARK   30  A    between atoms: _68  and  _71
REMARK   31  A    between atoms: _71  and  _72
REMARK   32  A    between atoms: _75  and  _77
REMARK   33  A    between atoms: _77  and  _78
REMARK   34  A    between atoms: _77  and  _80
REMARK   35  A    between atoms: _80  and  _81
REMARK   36  A    between atoms: _87  and  _89
REMARK   37  A    between atoms: _89  and  _90
REMARK   38  A    between atoms: _89  and  _92
REMARK   39  A    between atoms: _92  and  _93
REMARK   40  A    between atoms: _96  and  _98
REMARK   41  A    between atoms: _98  and  _99
REMARK   42  A    between atoms: _98  and  _101
REMARK   43  A    between atoms: _101  and  _102
REMARK   44  A    between atoms: _105  and  _107
REMARK   45  A    between atoms: _107  and  _108
REMARK   46  A    between atoms: _110  and  _112
REMARK   47  A    between atoms: _112  and  _113
REMARK   48  A    between atoms: _112  and  _115
REMARK   49  A    between atoms: _115  and  _116
REMARK   50  A    between atoms: _118  and  _120
REMARK   51  A    between atoms: _120  and  _121
REMARK   52  A    between atoms: _120  and  _123
REMARK   53  A    between atoms: _123  and  _124
REMARK   54  A    between atoms: _126  and  _128
REMARK   55  A    between atoms: _128  and  _129
REMARK   56  A    between atoms: _128  and  _131
REMARK   57  A    between atoms: _131  and  _132
REMARK   58  A    between atoms: _135  and  _137
REMARK   59  A    between atoms: _137  and  _138
REMARK   60  A    between atoms: _137  and  _140
REMARK   61  A    between atoms: _140  and  _141
REMARK   62  A    between atoms: _151  and  _153
REMARK   63  A    between atoms: _153  and  _154
REMARK   64  A    between atoms: _153  and  _156
REMARK   65  A    between atoms: _156  and  _157
REMARK   66  A    between atoms: _159  and  _161
REMARK   67  A    between atoms: _161  and  _162
REMARK   68  A    between atoms: _161  and  _164
REMARK   69  A    between atoms: _164  and  _165
REMARK   70  A    between atoms: _168  and  _170
REMARK   71  A    between atoms: _170  and  _171
REMARK   72  A    between atoms: _170  and  _173
REMARK   73  A    between atoms: _173  and  _174
REMARK   74  A    between atoms: _176  and  _178
REMARK   75  A    between atoms: _178  and  _179
REMARK   76  A    between atoms: _178  and  _181
REMARK   77  A    between atoms: _181  and  _182
REMARK   78  A    between atoms: _187  and  _188
REMARK   79  A    between atoms: _190  and  _192
REMARK   80  A    between atoms: _192  and  _193
REMARK   81  A    between atoms: _195  and  _197
REMARK   82  A    between atoms: _197  and  _198
REMARK   83  A    between atoms: _197  and  _200
REMARK   84  A    between atoms: _200  and  _201
REMARK   85  A    between atoms: _204  and  _206
REMARK   86  A    between atoms: _206  and  _207
REMARK   87  A    between atoms: _209  and  _211
REMARK   88  A    between atoms: _211  and  _212
REMARK   89  A    between atoms: _211  and  _214
REMARK   90  A    between atoms: _214  and  _215
REMARK   91  A    between atoms: _217  and  _219
REMARK   92  A    between atoms: _219  and  _220
REMARK   93  A    between atoms: _219  and  _222
REMARK   94  A    between atoms: _222  and  _223
REMARK   95  A    between atoms: _225  and  _227
REMARK   96  A    between atoms: _227  and  _228
REMARK   97  A    between atoms: _227  and  _230
REMARK   98  A    between atoms: _230  and  _231
REMARK   99  A    between atoms: _233  and  _235
REMARK  100  A    between atoms: _235  and  _236
REMARK  101  A    between atoms: _235  and  _238
REMARK  102  A    between atoms: _238  and  _239
REMARK  103  A    between atoms: _241  and  _243
REMARK  104  A    between atoms: _243  and  _244
REMARK  105  A    between atoms: _243  and  _246
REMARK  106  A    between atoms: _246  and  _247
REMARK  107  A    between atoms: _249  and  _251
REMARK  108  A    between atoms: _251  and  _252
REMARK  109  A    between atoms: _251  and  _254
REMARK  110  A    between atoms: _254  and  _255
REMARK  111  A    between atoms: _261  and  _263
REMARK  112  A    between atoms: _263  and  _264
REMARK  113  A    between atoms: _263  and  _266
REMARK  114  A    between atoms: _266  and  _267
REMARK  115  A    between atoms: _270  and  _272
REMARK  116  A    between atoms: _272  and  _273
REMARK  117  A    between atoms: _272  and  _275
REMARK  118  A    between atoms: _275  and  _276
REMARK  119  A    between atoms: _279  and  _281
REMARK  120  A    between atoms: _281  and  _282
REMARK  121  A    between atoms: _281  and  _284
REMARK  122  A    between atoms: _284  and  _285
REMARK  123  A    between atoms: _288  and  _290
REMARK  124  A    between atoms: _290  and  _291
REMARK  125  A    between atoms: _293  and  _295
REMARK  126  A    between atoms: _295  and  _296
REMARK  127  A    between atoms: _295  and  _298
REMARK  128  A    between atoms: _298  and  _299
REMARK  129  A    between atoms: _302  and  _304
REMARK  130  A    between atoms: _304  and  _305
REMARK  131  A    between atoms: _304  and  _307
REMARK  132  A    between atoms: _307  and  _308
REMARK  133  A    between atoms: _311  and  _313
REMARK  134  A    between atoms: _313  and  _314
REMARK  135  A    between atoms: _316  and  _318
REMARK  136  A    between atoms: _318  and  _319
REMARK  137  A    between atoms: _318  and  _321
REMARK  138  A    between atoms: _321  and  _322
REMARK  139  A    between atoms: _325  and  _327
REMARK  140  A    between atoms: _327  and  _328
REMARK  141  A    between atoms: _331  and  _333
REMARK  142  A    between atoms: _333  and  _334
REMARK  143  A    between atoms: _333  and  _336
REMARK  144  A    between atoms: _336  and  _337
REMARK  145  A    between atoms: _343  and  _345
REMARK  146  A    between atoms: _345  and  _346
REMARK  147  A    between atoms: _345  and  _348
REMARK  148  A    between atoms: _348  and  _349
REMARK  149  A    between atoms: _352  and  _354
REMARK  150  A    between atoms: _354  and  _355
REMARK  151  A    between atoms: _354  and  _357
REMARK  152  A    between atoms: _357  and  _358
REMARK  153  A    between atoms: _363  and  _365
REMARK  154  A    between atoms: _365  and  _366
REMARK  155  A    between atoms: _365  and  _368
REMARK  156  A    between atoms: _368  and  _369
REMARK  157  A    between atoms: _372  and  _374
REMARK  158  A    between atoms: _374  and  _375
REMARK  159  A    between atoms: _374  and  _377
REMARK  160  A    between atoms: _377  and  _378
REMARK  161  A    between atoms: _378  and  _379
REMARK  162  A    between atoms: _384  and  _386
REMARK  163  A    between atoms: _386  and  _387
REMARK  164  A    between atoms: _389  and  _391
REMARK  165  A    between atoms: _391  and  _392
REMARK  166  A    between atoms: _391  and  _394
REMARK  167  A    between atoms: _394  and  _395
REMARK  168  A    between atoms: _401  and  _403
REMARK  169  A    between atoms: _403  and  _404
REMARK  170  A    between atoms: _403  and  _406
REMARK  171  A    between atoms: _406  and  _407
REMARK  172  A    between atoms: _417  and  _419
REMARK  173  A    between atoms: _419  and  _420
REMARK  174  A    between atoms: _419  and  _422
REMARK  175  A    between atoms: _422  and  _423
REMARK  176  A    between atoms: _426  and  _428
REMARK  177  A    between atoms: _428  and  _429
REMARK  178  A    between atoms: _432  and  _434
REMARK  179  A    between atoms: _434  and  _435
REMARK  180  A    between atoms: _434  and  _437
REMARK  181  A    between atoms: _437  and  _438
REMARK  182  A    between atoms: _441  and  _443
REMARK  183  A    between atoms: _443  and  _444
REMARK  184  A    between atoms: _443  and  _446
REMARK  185  A    between atoms: _446  and  _447
REMARK  186  A    between atoms: _450  and  _452
REMARK  187  A    between atoms: _452  and  _453
REMARK  188  A    between atoms: _455  and  _457
REMARK  189  A    between atoms: _457  and  _458
REMARK  190  A    between atoms: _457  and  _460
REMARK  191  A    between atoms: _460  and  _461
REMARK  192  A    between atoms: _464  and  _466
REMARK  193  A    between atoms: _466  and  _467
REMARK  194  A    between atoms: _466  and  _469
REMARK  195  A    between atoms: _469  and  _470
REMARK  196  A    between atoms: _473  and  _475
REMARK  197  A    between atoms: _475  and  _476
REMARK  198  A    between atoms: _475  and  _478
REMARK  199  A    between atoms: _478  and  _479
REMARK  200  A    between atoms: _482  and  _484
REMARK  201  A    between atoms: _484  and  _485
REMARK  202  A    between atoms: _484  and  _487
REMARK  203  A    between atoms: _487  and  _488
REMARK  204  A    between atoms: _491  and  _493
REMARK  205  A    between atoms: _493  and  _494
REMARK  206  A    between atoms: _493  and  _496
REMARK  207  A    between atoms: _496  and  _497
REMARK  208  A    between atoms: _502  and  _503
REMARK  209  A    between atoms: _505  and  _507
REMARK  210  A    between atoms: _507  and  _508
REMARK  211  A    between atoms: _507  and  _510
REMARK  212  A    between atoms: _510  and  _511
REMARK  213  A    between atoms: _517  and  _519
REMARK  214  A    between atoms: _519  and  _520
REMARK  215  A    between atoms: _519  and  _522
REMARK  216  A    between atoms: _522  and  _523
REMARK  217  A    between atoms: _526  and  _528
REMARK  218  A    between atoms: _528  and  _529
REMARK  219  A    between atoms: _531  and  _533
REMARK  220  A    between atoms: _533  and  _534
REMARK  221  A    between atoms: _533  and  _536
REMARK  222  A    between atoms: _536  and  _537
REMARK  223  A    between atoms: _540  and  _542
REMARK  224  A    between atoms: _542  and  _543
REMARK  225  A    between atoms: _542  and  _545
REMARK  226  A    between atoms: _545  and  _546
REMARK  227  A    between atoms: _551  and  _553
REMARK  228  A    between atoms: _553  and  _554
REMARK  229  A    between atoms: _553  and  _556
REMARK  230  A    between atoms: _556  and  _557
REMARK  231  A    between atoms: _560  and  _562
REMARK  232  A    between atoms: _562  and  _563
REMARK  233  A    between atoms: _562  and  _565
REMARK  234  A    between atoms: _565  and  _566
REMARK  235  A    between atoms: _572  and  _574
REMARK  236  A    between atoms: _574  and  _575
REMARK  237  A    between atoms: _577  and  _579
REMARK  238  A    between atoms: _579  and  _580
REMARK  239  A    between atoms: _579  and  _582
REMARK  240  A    between atoms: _582  and  _583
REMARK  241  A    between atoms: _586  and  _588
REMARK  242  A    between atoms: _588  and  _589
REMARK  243  A    between atoms: _588  and  _591
REMARK                            x       y       z     vdW  Elec       q    Type
REMARK                         _______ _______ _______ _____ _____    ______ ____
ROOT
ATOM      1  O   HOH     1     -11.478  -1.710   2.089  0.00  0.00    +0.000 OA
ENDROOT
TORSDOF 0
