REMARK  Name = ../refined-set-2016/3dnt/3dnt_pocket.pdb
REMARK  260 active torsions:
REMARK  status: ('A' for Active; 'I' for Inactive)
REMARK    1  A    between atoms: _1  and  _3
REMARK    2  A    between atoms: _3  and  _4
REMARK    3  A    between atoms: _3  and  _6
REMARK    4  A    between atoms: _6  and  _7
REMARK    5  A    between atoms: _12  and  _14
REMARK    6  A    between atoms: _14  and  _15
REMARK    7  A    between atoms: _14  and  _17
REMARK    8  A    between atoms: _17  and  _18
REMARK    9  A    between atoms: _21  and  _23
REMARK   10  A    between atoms: _23  and  _24
REMARK   11  A    between atoms: _23  and  _26
REMARK   12  A    between atoms: _26  and  _27
REMARK   13  A    between atoms: _31  and  _32
REMARK   14  A    between atoms: _37  and  _39
REMARK   15  A    between atoms: _39  and  _40
REMARK   16  A    between atoms: _39  and  _42
REMARK   17  A    between atoms: _42  and  _43
REMARK   18  A    between atoms: _46  and  _48
REMARK   19  A    between atoms: _48  and  _49
REMARK   20  A    between atoms: _48  and  _51
REMARK   21  A    between atoms: _51  and  _52
REMARK   22  A    between atoms: _54  and  _56
REMARK   23  A    between atoms: _56  and  _57
REMARK   24  A    between atoms: _56  and  _59
REMARK   25  A    between atoms: _59  and  _60
REMARK   26  A    between atoms: _62  and  _64
REMARK   27  A    between atoms: _64  and  _65
REMARK   28  A    between atoms: _64  and  _67
REMARK   29  A    between atoms: _70  and  _72
REMARK   30  A    between atoms: _72  and  _73
REMARK   31  A    between atoms: _75  and  _77
REMARK   32  A    between atoms: _77  and  _78
REMARK   33  A    between atoms: _77  and  _80
REMARK   34  A    between atoms: _80  and  _81
REMARK   35  A    between atoms: _83  and  _85
REMARK   36  A    between atoms: _85  and  _86
REMARK   37  A    between atoms: _85  and  _88
REMARK   38  A    between atoms: _91  and  _93
REMARK   39  A    between atoms: _93  and  _94
REMARK   40  A    between atoms: _97  and  _99
REMARK   41  A    between atoms: _99  and  _100
REMARK   42  A    between atoms: _102  and  _104
REMARK   43  A    between atoms: _104  and  _105
REMARK   44  A    between atoms: _108  and  _110
REMARK   45  A    between atoms: _110  and  _111
REMARK   46  A    between atoms: _110  and  _113
REMARK   47  A    between atoms: _113  and  _114
REMARK   48  A    between atoms: _114  and  _115
REMARK   49  A    between atoms: _120  and  _122
REMARK   50  A    between atoms: _122  and  _123
REMARK   51  A    between atoms: _122  and  _125
REMARK   52  A    between atoms: _125  and  _126
REMARK   53  A    between atoms: _126  and  _127
REMARK   54  A    between atoms: _130  and  _132
REMARK   55  A    between atoms: _132  and  _133
REMARK   56  A    between atoms: _132  and  _135
REMARK   57  A    between atoms: _135  and  _136
REMARK   58  A    between atoms: _136  and  _137
REMARK   59  A    between atoms: _137  and  _138
REMARK   60  A    between atoms: _138  and  _139
REMARK   61  A    between atoms: _143  and  _145
REMARK   62  A    between atoms: _145  and  _146
REMARK   63  A    between atoms: _145  and  _148
REMARK   64  A    between atoms: _148  and  _149
REMARK   65  A    between atoms: _152  and  _154
REMARK   66  A    between atoms: _154  and  _155
REMARK   67  A    between atoms: _154  and  _157
REMARK   68  A    between atoms: _157  and  _158
REMARK   69  A    between atoms: _163  and  _165
REMARK   70  A    between atoms: _165  and  _166
REMARK   71  A    between atoms: _165  and  _168
REMARK   72  A    between atoms: _168  and  _169
REMARK   73  A    between atoms: _172  and  _174
REMARK   74  A    between atoms: _174  and  _175
REMARK   75  A    between atoms: _174  and  _177
REMARK   76  A    between atoms: _177  and  _178
REMARK   77  A    between atoms: _181  and  _183
REMARK   78  A    between atoms: _183  and  _184
REMARK   79  A    between atoms: _183  and  _186
REMARK   80  A    between atoms: _186  and  _187
REMARK   81  A    between atoms: _187  and  _188
REMARK   82  A    between atoms: _188  and  _189
REMARK   83  A    between atoms: _189  and  _190
REMARK   84  A    between atoms: _194  and  _196
REMARK   85  A    between atoms: _196  and  _197
REMARK   86  A    between atoms: _196  and  _199
REMARK   87  A    between atoms: _199  and  _200
REMARK   88  A    between atoms: _203  and  _205
REMARK   89  A    between atoms: _205  and  _206
REMARK   90  A    between atoms: _205  and  _208
REMARK   91  A    between atoms: _208  and  _209
REMARK   92  A    between atoms: _212  and  _214
REMARK   93  A    between atoms: _214  and  _215
REMARK   94  A    between atoms: _214  and  _217
REMARK   95  A    between atoms: _217  and  _218
REMARK   96  A    between atoms: _220  and  _222
REMARK   97  A    between atoms: _222  and  _223
REMARK   98  A    between atoms: _222  and  _225
REMARK   99  A    between atoms: _225  and  _226
REMARK  100  A    between atoms: _226  and  _227
REMARK  101  A    between atoms: _230  and  _232
REMARK  102  A    between atoms: _232  and  _233
REMARK  103  A    between atoms: _232  and  _235
REMARK  104  A    between atoms: _235  and  _236
REMARK  105  A    between atoms: _239  and  _241
REMARK  106  A    between atoms: _241  and  _242
REMARK  107  A    between atoms: _241  and  _244
REMARK  108  A    between atoms: _248  and  _249
REMARK  109  A    between atoms: _254  and  _256
REMARK  110  A    between atoms: _256  and  _257
REMARK  111  A    between atoms: _256  and  _259
REMARK  112  A    between atoms: _259  and  _260
REMARK  113  A    between atoms: _263  and  _265
REMARK  114  A    between atoms: _265  and  _266
REMARK  115  A    between atoms: _269  and  _271
REMARK  116  A    between atoms: _271  and  _272
REMARK  117  A    between atoms: _271  and  _274
REMARK  118  A    between atoms: _274  and  _275
REMARK  119  A    between atoms: _278  and  _280
REMARK  120  A    between atoms: _280  and  _281
REMARK  121  A    between atoms: _284  and  _286
REMARK  122  A    between atoms: _286  and  _287
REMARK  123  A    between atoms: _286  and  _289
REMARK  124  A    between atoms: _292  and  _294
REMARK  125  A    between atoms: _294  and  _295
REMARK  126  A    between atoms: _294  and  _297
REMARK  127  A    between atoms: _297  and  _298
REMARK  128  A    between atoms: _298  and  _299
REMARK  129  A    between atoms: _302  and  _304
REMARK  130  A    between atoms: _304  and  _305
REMARK  131  A    between atoms: _304  and  _307
REMARK  132  A    between atoms: _307  and  _308
REMARK  133  A    between atoms: _308  and  _309
REMARK  134  A    between atoms: _309  and  _310
REMARK  135  A    between atoms: _319  and  _321
REMARK  136  A    between atoms: _321  and  _322
REMARK  137  A    between atoms: _321  and  _324
REMARK  138  A    between atoms: _324  and  _325
REMARK  139  A    between atoms: _331  and  _333
REMARK  140  A    between atoms: _333  and  _334
REMARK  141  A    between atoms: _333  and  _336
REMARK  142  A    between atoms: _336  and  _337
REMARK  143  A    between atoms: _340  and  _342
REMARK  144  A    between atoms: _342  and  _343
REMARK  145  A    between atoms: _342  and  _345
REMARK  146  A    between atoms: _345  and  _346
REMARK  147  A    between atoms: _346  and  _347
REMARK  148  A    between atoms: _347  and  _348
REMARK  149  A    between atoms: _357  and  _359
REMARK  150  A    between atoms: _359  and  _360
REMARK  151  A    between atoms: _359  and  _362
REMARK  152  A    between atoms: _362  and  _363
REMARK  153  A    between atoms: _366  and  _368
REMARK  154  A    between atoms: _368  and  _369
REMARK  155  A    between atoms: _368  and  _371
REMARK  156  A    between atoms: _371  and  _372
REMARK  157  A    between atoms: _372  and  _373
REMARK  158  A    between atoms: _378  and  _380
REMARK  159  A    between atoms: _380  and  _381
REMARK  160  A    between atoms: _380  and  _383
REMARK  161  A    between atoms: _383  and  _384
REMARK  162  A    between atoms: _384  and  _385
REMARK  163  A    between atoms: _388  and  _390
REMARK  164  A    between atoms: _390  and  _391
REMARK  165  A    between atoms: _390  and  _393
REMARK  166  A    between atoms: _393  and  _394
REMARK  167  A    between atoms: _397  and  _399
REMARK  168  A    between atoms: _399  and  _400
REMARK  169  A    between atoms: _399  and  _402
REMARK  170  A    between atoms: _402  and  _403
REMARK  171  A    between atoms: _403  and  _404
REMARK  172  A    between atoms: _406  and  _408
REMARK  173  A    between atoms: _408  and  _409
REMARK  174  A    between atoms: _408  and  _411
REMARK  175  A    between atoms: _413  and  _415
REMARK  176  A    between atoms: _415  and  _416
REMARK  177  A    between atoms: _415  and  _418
REMARK  178  A    between atoms: _418  and  _419
REMARK  179  A    between atoms: _419  and  _420
REMARK  180  A    between atoms: _425  and  _427
REMARK  181  A    between atoms: _427  and  _428
REMARK  182  A    between atoms: _427  and  _430
REMARK  183  A    between atoms: _430  and  _431
REMARK  184  A    between atoms: _431  and  _432
REMARK  185  A    between atoms: _432  and  _433
REMARK  186  A    between atoms: _433  and  _434
REMARK  187  A    between atoms: _438  and  _440
REMARK  188  A    between atoms: _440  and  _441
REMARK  189  A    between atoms: _440  and  _443
REMARK  190  A    between atoms: _443  and  _444
REMARK  191  A    between atoms: _449  and  _450
REMARK  192  A    between atoms: _452  and  _454
REMARK  193  A    between atoms: _454  and  _455
REMARK  194  A    between atoms: _454  and  _457
REMARK  195  A    between atoms: _457  and  _458
REMARK  196  A    between atoms: _458  and  _459
REMARK  197  A    between atoms: _464  and  _466
REMARK  198  A    between atoms: _466  and  _467
REMARK  199  A    between atoms: _469  and  _471
REMARK  200  A    between atoms: _471  and  _472
REMARK  201  A    between atoms: _471  and  _474
REMARK  202  A    between atoms: _474  and  _475
REMARK  203  A    between atoms: _480  and  _482
REMARK  204  A    between atoms: _482  and  _483
REMARK  205  A    between atoms: _486  and  _488
REMARK  206  A    between atoms: _488  and  _489
REMARK  207  A    between atoms: _488  and  _491
REMARK  208  A    between atoms: _491  and  _492
REMARK  209  A    between atoms: _492  and  _493
REMARK  210  A    between atoms: _493  and  _494
REMARK  211  A    between atoms: _494  and  _495
REMARK  212  A    between atoms: _499  and  _501
REMARK  213  A    between atoms: _501  and  _502
REMARK  214  A    between atoms: _501  and  _504
REMARK  215  A    between atoms: _504  and  _505
REMARK  216  A    between atoms: _505  and  _506
REMARK  217  A    between atoms: _505  and  _507
REMARK  218  A    between atoms: _506  and  MG_619
REMARK  219  A    between atoms: _510  and  _512
REMARK  220  A    between atoms: _512  and  _513
REMARK  221  A    between atoms: _512  and  _515
REMARK  222  A    between atoms: _515  and  _516
REMARK  223  A    between atoms: _522  and  _524
REMARK  224  A    between atoms: _524  and  _525
REMARK  225  A    between atoms: _524  and  _527
REMARK  226  A    between atoms: _527  and  _528
REMARK  227  A    between atoms: _530  and  _532
REMARK  228  A    between atoms: _532  and  _533
REMARK  229  A    between atoms: _532  and  _535
REMARK  230  A    between atoms: _538  and  _540
REMARK  231  A    between atoms: _540  and  _541
REMARK  232  A    between atoms: _540  and  _543
REMARK  233  A    between atoms: _543  and  _544
REMARK  234  A    between atoms: _550  and  _552
REMARK  235  A    between atoms: _552  and  _553
REMARK  236  A    between atoms: _552  and  _555
REMARK  237  A    between atoms: _555  and  _556
REMARK  238  A    between atoms: _560  and  _561
REMARK  239  A    between atoms: _566  and  _568
REMARK  240  A    between atoms: _568  and  _569
REMARK  241  A    between atoms: _568  and  _571
REMARK  242  A    between atoms: _571  and  _572
REMARK  243  A    between atoms: _578  and  _580
REMARK  244  A    between atoms: _580  and  _581
REMARK  245  A    between atoms: _580  and  _583
REMARK  246  A    between atoms: _583  and  _584
REMARK  247  A    between atoms: _589  and  _590
REMARK  248  A    between atoms: _592  and  _594
REMARK  249  A    between atoms: _594  and  _595
REMARK  250  A    between atoms: _594  and  _597
REMARK  251  A    between atoms: _597  and  _598
REMARK  252  A    between atoms: _598  and  _599
REMARK  253  A    between atoms: _601  and  _603
REMARK  254  A    between atoms: _603  and  _604
REMARK  255  A    between atoms: _603  and  _606
REMARK  256  A    between atoms: _606  and  _607
REMARK  257  A    between atoms: _610  and  _612
REMARK  258  A    between atoms: _612  and  _613
REMARK  259  A    between atoms: _612  and  _615
REMARK  260  A    between atoms: _615  and  _616
REMARK                            x       y       z     vdW  Elec       q    Type
REMARK                         _______ _______ _______ _____ _____    ______ ____
ROOT
ATOM      1  CA  LEU A   3       4.261   4.601  45.895  0.00  0.00    +0.149 C 
ENDROOT
BRANCH   1   2
ATOM      2  C   LEU A   3       3.399   5.861  45.851  0.00  0.00    +0.244 C 
ATOM      3  N   PRO A   4       4.035   7.053  45.896  0.00  0.00    -0.272 N 
ATOM      4  CD  PRO A   4       5.464   7.243  46.207  0.00  0.00    +0.094 C 
ATOM      5  CG  PRO A   4       5.546   8.723  46.556  0.00  0.00    +0.024 C 
ATOM      6  CB  PRO A   4       4.477   9.347  45.741  0.00  0.00    +0.031 C 
ATOM      7  CA  PRO A   4       3.335   8.339  45.838  0.00  0.00    +0.152 C 
ATOM      8  O   LEU A   3       2.176   5.769  45.827  0.00  0.00    -0.273 OA
BRANCH   7   9
ATOM      9  C   PRO A   4       2.499   8.297  44.552  0.00  0.00    +0.241 C 
ATOM     10  N   ASP A   5       1.297   8.855  44.604  0.00  0.00    -0.297 N 
ATOM     11  H   ASP A   5       0.975   9.316  45.479  0.00  0.00    +0.150 HD
ATOM     12  O   PRO A   4       2.932   7.752  43.518  0.00  0.00    -0.273 OA
BRANCH  10  13
ATOM     13  CA  ASP A   5       0.425   8.822  43.433  0.00  0.00    +0.160 C 
BRANCH  13  14
ATOM     14  C   ASP A   5       0.947   9.690  42.276  0.00  0.00    +0.241 C 
ATOM     15  N   SER A   6       1.462  10.854  42.621  0.00  0.00    -0.296 N 
ATOM     16  H   SER A   6       1.551  11.092  43.629  0.00  0.00    +0.150 HD
ATOM     17  O   ASP A   5       0.865   9.319  41.117  0.00  0.00    -0.273 OA
BRANCH  15  18
ATOM     18  CA  SER A   6       1.908  11.813  41.621  0.00  0.00    +0.166 C 
BRANCH  18  19
ATOM     19  C   SER A   6       3.049  11.419  40.705  0.00  0.00    +0.229 C 
ATOM     20  O   SER A   6       4.118  11.027  41.161  0.00  0.00    -0.286 OA
ENDBRANCH  18  19
BRANCH  18  21
ATOM     21  CB  SER A   6       2.267  13.124  42.304  0.00  0.00    +0.165 C 
BRANCH  21  22
ATOM     22  OG  SER A   6       2.954  13.980  41.404  0.00  0.00    -0.380 OA
ATOM     23  H   SER A   6       3.180  14.827  41.864  0.00  0.00    +0.211 HD
ENDBRANCH  21  22
ENDBRANCH  18  21
ENDBRANCH  15  18
ENDBRANCH  13  14
BRANCH  13  24
ATOM     24  CB  ASP A   5      -0.961   9.357  43.791  0.00  0.00    +0.143 C 
BRANCH  24  25
ATOM     25  CG  ASP A   5      -1.683   8.513  44.812  0.00  0.00    +0.367 C 
ATOM     26  OD2 ASP A   5      -1.034   7.781  45.590  0.00  0.00    -0.246 OA
ATOM     27  OD1 ASP A   5      -2.921   8.607  44.835  0.00  0.00    -0.246 OA
ENDBRANCH  24  25
ENDBRANCH  13  24
ENDBRANCH  10  13
ENDBRANCH   7   9
ENDBRANCH   1   2
BRANCH   1  30
ATOM     28  C   LEU A   2       3.436   2.994  47.565  0.00  0.00    +0.241 C 
ATOM     29  O   LEU A   2       3.989   3.599  48.505  0.00  0.00    -0.273 OA
ATOM     30  N   LEU A   3       3.500   3.410  46.300  0.00  0.00    -0.297 N 
ATOM     31  H   LEU A   3       2.991   2.871  45.571  0.00  0.00    +0.150 HD
BRANCH  28  32
ATOM     32  CA  LEU A   2       2.642   1.710  47.829  0.00  0.00    +0.149 C 
BRANCH  32  35
ATOM     33  C   ASN A   1       0.582   1.854  46.533  0.00  0.00    +0.239 C 
ATOM     34  O   ASN A   1       0.051   2.540  47.398  0.00  0.00    -0.274 OA
ATOM     35  N   LEU A   2       1.801   1.346  46.673  0.00  0.00    -0.297 N 
ATOM     36  H   LEU A   2       2.167   0.684  45.959  0.00  0.00    +0.150 HD
BRANCH  33  37
ATOM     37  CA  ASN A   1      -0.183   1.498  45.262  0.00  0.00    +0.154 C 
BRANCH  37  38
ATOM     38  N   ASN A   1       0.614   0.788  44.277  0.00  0.00    -0.238 NA
ATOM     39  H   ASN A   1       0.388  -0.208  44.079  0.00  0.00    +0.142 HD
ENDBRANCH  37  38
BRANCH  37  40
ATOM     40  CB  ASN A   1      -1.436   0.674  45.588  0.00  0.00    +0.111 C 
BRANCH  40  41
ATOM     41  CG  ASN A   1      -2.594   1.018  44.676  0.00  0.00    +0.221 C 
ATOM     42  OD1 ASN A   1      -3.011   2.176  44.611  0.00  0.00    -0.275 OA
ATOM     43  ND2 ASN A   1      -3.134   0.012  43.969  0.00  0.00    -0.329 N 
ATOM     44 HD21 ASN A   1      -2.749  -0.950  44.056  0.00  0.00    +0.145 HD
ATOM     45 HD22 ASN A   1      -3.938   0.195  43.335  0.00  0.00    +0.145 HD
ENDBRANCH  40  41
ENDBRANCH  37  40
ENDBRANCH  33  37
ENDBRANCH  32  35
BRANCH  32  46
ATOM     46  CB  LEU A   2       3.650   0.587  48.133  0.00  0.00    +0.029 C 
BRANCH  46  47
ATOM     47  CG  LEU A   2       3.096  -0.745  48.616  0.00  0.00    +0.002 C 
ATOM     48  CD2 LEU A   2       2.419  -0.561  49.949  0.00  0.00    +0.000 C 
ATOM     49  CD1 LEU A   2       4.271  -1.713  48.780  0.00  0.00    +0.000 C 
ENDBRANCH  46  47
ENDBRANCH  32  46
ENDBRANCH  28  32
ENDBRANCH   1  30
BRANCH   1  50
ATOM     50  CB  LEU A   3       4.855   4.366  44.486  0.00  0.00    +0.029 C 
BRANCH  50  51
ATOM     51  CG  LEU A   3       5.901   3.243  44.408  0.00  0.00    +0.002 C 
ATOM     52  CD2 LEU A   3       7.223   3.752  45.000  0.00  0.00    +0.000 C 
ATOM     53  CD1 LEU A   3       6.103   2.812  42.970  0.00  0.00    +0.000 C 
ENDBRANCH  50  51
ENDBRANCH   1  50
TORSDOF 21
REMARK  Name = ../refined-set-2016/3dnt/3dnt_pocket.pdb
REMARK  260 active torsions:
REMARK  status: ('A' for Active; 'I' for Inactive)
REMARK    1  A    between atoms: _1  and  _3
REMARK    2  A    between atoms: _3  and  _4
REMARK    3  A    between atoms: _3  and  _6
REMARK    4  A    between atoms: _6  and  _7
REMARK    5  A    between atoms: _12  and  _14
REMARK    6  A    between atoms: _14  and  _15
REMARK    7  A    between atoms: _14  and  _17
REMARK    8  A    between atoms: _17  and  _18
REMARK    9  A    between atoms: _21  and  _23
REMARK   10  A    between atoms: _23  and  _24
REMARK   11  A    between atoms: _23  and  _26
REMARK   12  A    between atoms: _26  and  _27
REMARK   13  A    between atoms: _31  and  _32
REMARK   14  A    between atoms: _37  and  _39
REMARK   15  A    between atoms: _39  and  _40
REMARK   16  A    between atoms: _39  and  _42
REMARK   17  A    between atoms: _42  and  _43
REMARK   18  A    between atoms: _46  and  _48
REMARK   19  A    between atoms: _48  and  _49
REMARK   20  A    between atoms: _48  and  _51
REMARK   21  A    between atoms: _51  and  _52
REMARK   22  A    between atoms: _54  and  _56
REMARK   23  A    between atoms: _56  and  _57
REMARK   24  A    between atoms: _56  and  _59
REMARK   25  A    between atoms: _59  and  _60
REMARK   26  A    between atoms: _62  and  _64
REMARK   27  A    between atoms: _64  and  _65
REMARK   28  A    between atoms: _64  and  _67
REMARK   29  A    between atoms: _70  and  _72
REMARK   30  A    between atoms: _72  and  _73
REMARK   31  A    between atoms: _75  and  _77
REMARK   32  A    between atoms: _77  and  _78
REMARK   33  A    between atoms: _77  and  _80
REMARK   34  A    between atoms: _80  and  _81
REMARK   35  A    between atoms: _83  and  _85
REMARK   36  A    between atoms: _85  and  _86
REMARK   37  A    between atoms: _85  and  _88
REMARK   38  A    between atoms: _91  and  _93
REMARK   39  A    between atoms: _93  and  _94
REMARK   40  A    between atoms: _97  and  _99
REMARK   41  A    between atoms: _99  and  _100
REMARK   42  A    between atoms: _102  and  _104
REMARK   43  A    between atoms: _104  and  _105
REMARK   44  A    between atoms: _108  and  _110
REMARK   45  A    between atoms: _110  and  _111
REMARK   46  A    between atoms: _110  and  _113
REMARK   47  A    between atoms: _113  and  _114
REMARK   48  A    between atoms: _114  and  _115
REMARK   49  A    between atoms: _120  and  _122
REMARK   50  A    between atoms: _122  and  _123
REMARK   51  A    between atoms: _122  and  _125
REMARK   52  A    between atoms: _125  and  _126
REMARK   53  A    between atoms: _126  and  _127
REMARK   54  A    between atoms: _130  and  _132
REMARK   55  A    between atoms: _132  and  _133
REMARK   56  A    between atoms: _132  and  _135
REMARK   57  A    between atoms: _135  and  _136
REMARK   58  A    between atoms: _136  and  _137
REMARK   59  A    between atoms: _137  and  _138
REMARK   60  A    between atoms: _138  and  _139
REMARK   61  A    between atoms: _143  and  _145
REMARK   62  A    between atoms: _145  and  _146
REMARK   63  A    between atoms: _145  and  _148
REMARK   64  A    between atoms: _148  and  _149
REMARK   65  A    between atoms: _152  and  _154
REMARK   66  A    between atoms: _154  and  _155
REMARK   67  A    between atoms: _154  and  _157
REMARK   68  A    between atoms: _157  and  _158
REMARK   69  A    between atoms: _163  and  _165
REMARK   70  A    between atoms: _165  and  _166
REMARK   71  A    between atoms: _165  and  _168
REMARK   72  A    between atoms: _168  and  _169
REMARK   73  A    between atoms: _172  and  _174
REMARK   74  A    between atoms: _174  and  _175
REMARK   75  A    between atoms: _174  and  _177
REMARK   76  A    between atoms: _177  and  _178
REMARK   77  A    between atoms: _181  and  _183
REMARK   78  A    between atoms: _183  and  _184
REMARK   79  A    between atoms: _183  and  _186
REMARK   80  A    between atoms: _186  and  _187
REMARK   81  A    between atoms: _187  and  _188
REMARK   82  A    between atoms: _188  and  _189
REMARK   83  A    between atoms: _189  and  _190
REMARK   84  A    between atoms: _194  and  _196
REMARK   85  A    between atoms: _196  and  _197
REMARK   86  A    between atoms: _196  and  _199
REMARK   87  A    between atoms: _199  and  _200
REMARK   88  A    between atoms: _203  and  _205
REMARK   89  A    between atoms: _205  and  _206
REMARK   90  A    between atoms: _205  and  _208
REMARK   91  A    between atoms: _208  and  _209
REMARK   92  A    between atoms: _212  and  _214
REMARK   93  A    between atoms: _214  and  _215
REMARK   94  A    between atoms: _214  and  _217
REMARK   95  A    between atoms: _217  and  _218
REMARK   96  A    between atoms: _220  and  _222
REMARK   97  A    between atoms: _222  and  _223
REMARK   98  A    between atoms: _222  and  _225
REMARK   99  A    between atoms: _225  and  _226
REMARK  100  A    between atoms: _226  and  _227
REMARK  101  A    between atoms: _230  and  _232
REMARK  102  A    between atoms: _232  and  _233
REMARK  103  A    between atoms: _232  and  _235
REMARK  104  A    between atoms: _235  and  _236
REMARK  105  A    between atoms: _239  and  _241
REMARK  106  A    between atoms: _241  and  _242
REMARK  107  A    between atoms: _241  and  _244
REMARK  108  A    between atoms: _248  and  _249
REMARK  109  A    between atoms: _254  and  _256
REMARK  110  A    between atoms: _256  and  _257
REMARK  111  A    between atoms: _256  and  _259
REMARK  112  A    between atoms: _259  and  _260
REMARK  113  A    between atoms: _263  and  _265
REMARK  114  A    between atoms: _265  and  _266
REMARK  115  A    between atoms: _269  and  _271
REMARK  116  A    between atoms: _271  and  _272
REMARK  117  A    between atoms: _271  and  _274
REMARK  118  A    between atoms: _274  and  _275
REMARK  119  A    between atoms: _278  and  _280
REMARK  120  A    between atoms: _280  and  _281
REMARK  121  A    between atoms: _284  and  _286
REMARK  122  A    between atoms: _286  and  _287
REMARK  123  A    between atoms: _286  and  _289
REMARK  124  A    between atoms: _292  and  _294
REMARK  125  A    between atoms: _294  and  _295
REMARK  126  A    between atoms: _294  and  _297
REMARK  127  A    between atoms: _297  and  _298
REMARK  128  A    between atoms: _298  and  _299
REMARK  129  A    between atoms: _302  and  _304
REMARK  130  A    between atoms: _304  and  _305
REMARK  131  A    between atoms: _304  and  _307
REMARK  132  A    between atoms: _307  and  _308
REMARK  133  A    between atoms: _308  and  _309
REMARK  134  A    between atoms: _309  and  _310
REMARK  135  A    between atoms: _319  and  _321
REMARK  136  A    between atoms: _321  and  _322
REMARK  137  A    between atoms: _321  and  _324
REMARK  138  A    between atoms: _324  and  _325
REMARK  139  A    between atoms: _331  and  _333
REMARK  140  A    between atoms: _333  and  _334
REMARK  141  A    between atoms: _333  and  _336
REMARK  142  A    between atoms: _336  and  _337
REMARK  143  A    between atoms: _340  and  _342
REMARK  144  A    between atoms: _342  and  _343
REMARK  145  A    between atoms: _342  and  _345
REMARK  146  A    between atoms: _345  and  _346
REMARK  147  A    between atoms: _346  and  _347
REMARK  148  A    between atoms: _347  and  _348
REMARK  149  A    between atoms: _357  and  _359
REMARK  150  A    between atoms: _359  and  _360
REMARK  151  A    between atoms: _359  and  _362
REMARK  152  A    between atoms: _362  and  _363
REMARK  153  A    between atoms: _366  and  _368
REMARK  154  A    between atoms: _368  and  _369
REMARK  155  A    between atoms: _368  and  _371
REMARK  156  A    between atoms: _371  and  _372
REMARK  157  A    between atoms: _372  and  _373
REMARK  158  A    between atoms: _378  and  _380
REMARK  159  A    between atoms: _380  and  _381
REMARK  160  A    between atoms: _380  and  _383
REMARK  161  A    between atoms: _383  and  _384
REMARK  162  A    between atoms: _384  and  _385
REMARK  163  A    between atoms: _388  and  _390
REMARK  164  A    between atoms: _390  and  _391
REMARK  165  A    between atoms: _390  and  _393
REMARK  166  A    between atoms: _393  and  _394
REMARK  167  A    between atoms: _397  and  _399
REMARK  168  A    between atoms: _399  and  _400
REMARK  169  A    between atoms: _399  and  _402
REMARK  170  A    between atoms: _402  and  _403
REMARK  171  A    between atoms: _403  and  _404
REMARK  172  A    between atoms: _406  and  _408
REMARK  173  A    between atoms: _408  and  _409
REMARK  174  A    between atoms: _408  and  _411
REMARK  175  A    between atoms: _413  and  _415
REMARK  176  A    between atoms: _415  and  _416
REMARK  177  A    between atoms: _415  and  _418
REMARK  178  A    between atoms: _418  and  _419
REMARK  179  A    between atoms: _419  and  _420
REMARK  180  A    between atoms: _425  and  _427
REMARK  181  A    between atoms: _427  and  _428
REMARK  182  A    between atoms: _427  and  _430
REMARK  183  A    between atoms: _430  and  _431
REMARK  184  A    between atoms: _431  and  _432
REMARK  185  A    between atoms: _432  and  _433
REMARK  186  A    between atoms: _433  and  _434
REMARK  187  A    between atoms: _438  and  _440
REMARK  188  A    between atoms: _440  and  _441
REMARK  189  A    between atoms: _440  and  _443
REMARK  190  A    between atoms: _443  and  _444
REMARK  191  A    between atoms: _449  and  _450
REMARK  192  A    between atoms: _452  and  _454
REMARK  193  A    between atoms: _454  and  _455
REMARK  194  A    between atoms: _454  and  _457
REMARK  195  A    between atoms: _457  and  _458
REMARK  196  A    between atoms: _458  and  _459
REMARK  197  A    between atoms: _464  and  _466
REMARK  198  A    between atoms: _466  and  _467
REMARK  199  A    between atoms: _469  and  _471
REMARK  200  A    between atoms: _471  and  _472
REMARK  201  A    between atoms: _471  and  _474
REMARK  202  A    between atoms: _474  and  _475
REMARK  203  A    between atoms: _480  and  _482
REMARK  204  A    between atoms: _482  and  _483
REMARK  205  A    between atoms: _486  and  _488
REMARK  206  A    between atoms: _488  and  _489
REMARK  207  A    between atoms: _488  and  _491
REMARK  208  A    between atoms: _491  and  _492
REMARK  209  A    between atoms: _492  and  _493
REMARK  210  A    between atoms: _493  and  _494
REMARK  211  A    between atoms: _494  and  _495
REMARK  212  A    between atoms: _499  and  _501
REMARK  213  A    between atoms: _501  and  _502
REMARK  214  A    between atoms: _501  and  _504
REMARK  215  A    between atoms: _504  and  _505
REMARK  216  A    between atoms: _505  and  _506
REMARK  217  A    between atoms: _505  and  _507
REMARK  218  A    between atoms: _506  and  MG_619
REMARK  219  A    between atoms: _510  and  _512
REMARK  220  A    between atoms: _512  and  _513
REMARK  221  A    between atoms: _512  and  _515
REMARK  222  A    between atoms: _515  and  _516
REMARK  223  A    between atoms: _522  and  _524
REMARK  224  A    between atoms: _524  and  _525
REMARK  225  A    between atoms: _524  and  _527
REMARK  226  A    between atoms: _527  and  _528
REMARK  227  A    between atoms: _530  and  _532
REMARK  228  A    between atoms: _532  and  _533
REMARK  229  A    between atoms: _532  and  _535
REMARK  230  A    between atoms: _538  and  _540
REMARK  231  A    between atoms: _540  and  _541
REMARK  232  A    between atoms: _540  and  _543
REMARK  233  A    between atoms: _543  and  _544
REMARK  234  A    between atoms: _550  and  _552
REMARK  235  A    between atoms: _552  and  _553
REMARK  236  A    between atoms: _552  and  _555
REMARK  237  A    between atoms: _555  and  _556
REMARK  238  A    between atoms: _560  and  _561
REMARK  239  A    between atoms: _566  and  _568
REMARK  240  A    between atoms: _568  and  _569
REMARK  241  A    between atoms: _568  and  _571
REMARK  242  A    between atoms: _571  and  _572
REMARK  243  A    between atoms: _578  and  _580
REMARK  244  A    between atoms: _580  and  _581
REMARK  245  A    between atoms: _580  and  _583
REMARK  246  A    between atoms: _583  and  _584
REMARK  247  A    between atoms: _589  and  _590
REMARK  248  A    between atoms: _592  and  _594
REMARK  249  A    between atoms: _594  and  _595
REMARK  250  A    between atoms: _594  and  _597
REMARK  251  A    between atoms: _597  and  _598
REMARK  252  A    between atoms: _598  and  _599
REMARK  253  A    between atoms: _601  and  _603
REMARK  254  A    between atoms: _603  and  _604
REMARK  255  A    between atoms: _603  and  _606
REMARK  256  A    between atoms: _606  and  _607
REMARK  257  A    between atoms: _610  and  _612
REMARK  258  A    between atoms: _612  and  _613
REMARK  259  A    between atoms: _612  and  _615
REMARK  260  A    between atoms: _615  and  _616
REMARK                            x       y       z     vdW  Elec       q    Type
REMARK                         _______ _______ _______ _____ _____    ______ ____
ROOT
ATOM      1  CA  VAL A   2       2.262   2.026  54.427  0.00  0.00    +0.148 C 
ENDROOT
BRANCH   1   4
ATOM      2  C   SER A   1       4.656   1.882  54.253  0.00  0.00    +0.241 C 
ATOM      3  O   SER A   1       4.735   1.458  55.418  0.00  0.00    -0.274 OA
ATOM      4  N   VAL A   2       3.501   2.204  53.689  0.00  0.00    -0.297 N 
ATOM      5  H   VAL A   2       3.481   2.583  52.721  0.00  0.00    +0.150 HD
BRANCH   2   6
ATOM      6  CA  SER A   1       5.909   2.098  53.420  0.00  0.00    +0.174 C 
BRANCH   6   7
ATOM      7  N   SER A   1       7.062   1.588  54.164  0.00  0.00    -0.236 NA
ATOM      8  H   SER A   1       6.972   0.719  54.728  0.00  0.00    +0.142 HD
ENDBRANCH   6   7
BRANCH   6   9
ATOM      9  CB  SER A   1       5.775   1.400  52.060  0.00  0.00    +0.163 C 
BRANCH   9  10
ATOM     10  OG  SER A   1       5.575   0.024  52.203  0.00  0.00    -0.380 OA
ATOM     11  H   SER A   1       4.745  -0.136  52.719  0.00  0.00    +0.211 HD
ENDBRANCH   9  10
ENDBRANCH   6   9
ENDBRANCH   2   6
ENDBRANCH   1   4
BRANCH   1  12
ATOM     12  C   VAL A   2       2.048   0.534  54.645  0.00  0.00    +0.241 C 
ATOM     13  N   GLY A   3       1.739   0.155  55.880  0.00  0.00    -0.296 N 
ATOM     14  H   GLY A   3       1.634   0.863  56.635  0.00  0.00    +0.150 HD
ATOM     15  O   VAL A   2       2.190  -0.267  53.715  0.00  0.00    -0.273 OA
BRANCH  13  16
ATOM     16  CA  GLY A   3       1.550  -1.248  56.167  0.00  0.00    +0.163 C 
BRANCH  16  17
ATOM     17  C   GLY A   3       2.840  -1.865  56.678  0.00  0.00    +0.229 C 
ATOM     18  O   GLY A   3       3.715  -1.165  57.199  0.00  0.00    -0.286 OA
ENDBRANCH  16  17
ENDBRANCH  13  16
ENDBRANCH   1  12
BRANCH   1  19
ATOM     19  CB  VAL A   2       1.097   2.656  53.670  0.00  0.00    +0.027 C 
ATOM     20  CG2 VAL A   2      -0.191   2.307  54.320  0.00  0.00    +0.002 C 
ATOM     21  CG1 VAL A   2       1.281   4.156  53.649  0.00  0.00    +0.002 C 
ENDBRANCH   1  19
TORSDOF 9
REMARK  Name = ../refined-set-2016/3dnt/3dnt_pocket.pdb
REMARK  260 active torsions:
REMARK  status: ('A' for Active; 'I' for Inactive)
REMARK    1  A    between atoms: _1  and  _3
REMARK    2  A    between atoms: _3  and  _4
REMARK    3  A    between atoms: _3  and  _6
REMARK    4  A    between atoms: _6  and  _7
REMARK    5  A    between atoms: _12  and  _14
REMARK    6  A    between atoms: _14  and  _15
REMARK    7  A    between atoms: _14  and  _17
REMARK    8  A    between atoms: _17  and  _18
REMARK    9  A    between atoms: _21  and  _23
REMARK   10  A    between atoms: _23  and  _24
REMARK   11  A    between atoms: _23  and  _26
REMARK   12  A    between atoms: _26  and  _27
REMARK   13  A    between atoms: _31  and  _32
REMARK   14  A    between atoms: _37  and  _39
REMARK   15  A    between atoms: _39  and  _40
REMARK   16  A    between atoms: _39  and  _42
REMARK   17  A    between atoms: _42  and  _43
REMARK   18  A    between atoms: _46  and  _48
REMARK   19  A    between atoms: _48  and  _49
REMARK   20  A    between atoms: _48  and  _51
REMARK   21  A    between atoms: _51  and  _52
REMARK   22  A    between atoms: _54  and  _56
REMARK   23  A    between atoms: _56  and  _57
REMARK   24  A    between atoms: _56  and  _59
REMARK   25  A    between atoms: _59  and  _60
REMARK   26  A    between atoms: _62  and  _64
REMARK   27  A    between atoms: _64  and  _65
REMARK   28  A    between atoms: _64  and  _67
REMARK   29  A    between atoms: _70  and  _72
REMARK   30  A    between atoms: _72  and  _73
REMARK   31  A    between atoms: _75  and  _77
REMARK   32  A    between atoms: _77  and  _78
REMARK   33  A    between atoms: _77  and  _80
REMARK   34  A    between atoms: _80  and  _81
REMARK   35  A    between atoms: _83  and  _85
REMARK   36  A    between atoms: _85  and  _86
REMARK   37  A    between atoms: _85  and  _88
REMARK   38  A    between atoms: _91  and  _93
REMARK   39  A    between atoms: _93  and  _94
REMARK   40  A    between atoms: _97  and  _99
REMARK   41  A    between atoms: _99  and  _100
REMARK   42  A    between atoms: _102  and  _104
REMARK   43  A    between atoms: _104  and  _105
REMARK   44  A    between atoms: _108  and  _110
REMARK   45  A    between atoms: _110  and  _111
REMARK   46  A    between atoms: _110  and  _113
REMARK   47  A    between atoms: _113  and  _114
REMARK   48  A    between atoms: _114  and  _115
REMARK   49  A    between atoms: _120  and  _122
REMARK   50  A    between atoms: _122  and  _123
REMARK   51  A    between atoms: _122  and  _125
REMARK   52  A    between atoms: _125  and  _126
REMARK   53  A    between atoms: _126  and  _127
REMARK   54  A    between atoms: _130  and  _132
REMARK   55  A    between atoms: _132  and  _133
REMARK   56  A    between atoms: _132  and  _135
REMARK   57  A    between atoms: _135  and  _136
REMARK   58  A    between atoms: _136  and  _137
REMARK   59  A    between atoms: _137  and  _138
REMARK   60  A    between atoms: _138  and  _139
REMARK   61  A    between atoms: _143  and  _145
REMARK   62  A    between atoms: _145  and  _146
REMARK   63  A    between atoms: _145  and  _148
REMARK   64  A    between atoms: _148  and  _149
REMARK   65  A    between atoms: _152  and  _154
REMARK   66  A    between atoms: _154  and  _155
REMARK   67  A    between atoms: _154  and  _157
REMARK   68  A    between atoms: _157  and  _158
REMARK   69  A    between atoms: _163  and  _165
REMARK   70  A    between atoms: _165  and  _166
REMARK   71  A    between atoms: _165  and  _168
REMARK   72  A    between atoms: _168  and  _169
REMARK   73  A    between atoms: _172  and  _174
REMARK   74  A    between atoms: _174  and  _175
REMARK   75  A    between atoms: _174  and  _177
REMARK   76  A    between atoms: _177  and  _178
REMARK   77  A    between atoms: _181  and  _183
REMARK   78  A    between atoms: _183  and  _184
REMARK   79  A    between atoms: _183  and  _186
REMARK   80  A    between atoms: _186  and  _187
REMARK   81  A    between atoms: _187  and  _188
REMARK   82  A    between atoms: _188  and  _189
REMARK   83  A    between atoms: _189  and  _190
REMARK   84  A    between atoms: _194  and  _196
REMARK   85  A    between atoms: _196  and  _197
REMARK   86  A    between atoms: _196  and  _199
REMARK   87  A    between atoms: _199  and  _200
REMARK   88  A    between atoms: _203  and  _205
REMARK   89  A    between atoms: _205  and  _206
REMARK   90  A    between atoms: _205  and  _208
REMARK   91  A    between atoms: _208  and  _209
REMARK   92  A    between atoms: _212  and  _214
REMARK   93  A    between atoms: _214  and  _215
REMARK   94  A    between atoms: _214  and  _217
REMARK   95  A    between atoms: _217  and  _218
REMARK   96  A    between atoms: _220  and  _222
REMARK   97  A    between atoms: _222  and  _223
REMARK   98  A    between atoms: _222  and  _225
REMARK   99  A    between atoms: _225  and  _226
REMARK  100  A    between atoms: _226  and  _227
REMARK  101  A    between atoms: _230  and  _232
REMARK  102  A    between atoms: _232  and  _233
REMARK  103  A    between atoms: _232  and  _235
REMARK  104  A    between atoms: _235  and  _236
REMARK  105  A    between atoms: _239  and  _241
REMARK  106  A    between atoms: _241  and  _242
REMARK  107  A    between atoms: _241  and  _244
REMARK  108  A    between atoms: _248  and  _249
REMARK  109  A    between atoms: _254  and  _256
REMARK  110  A    between atoms: _256  and  _257
REMARK  111  A    between atoms: _256  and  _259
REMARK  112  A    between atoms: _259  and  _260
REMARK  113  A    between atoms: _263  and  _265
REMARK  114  A    between atoms: _265  and  _266
REMARK  115  A    between atoms: _269  and  _271
REMARK  116  A    between atoms: _271  and  _272
REMARK  117  A    between atoms: _271  and  _274
REMARK  118  A    between atoms: _274  and  _275
REMARK  119  A    between atoms: _278  and  _280
REMARK  120  A    between atoms: _280  and  _281
REMARK  121  A    between atoms: _284  and  _286
REMARK  122  A    between atoms: _286  and  _287
REMARK  123  A    between atoms: _286  and  _289
REMARK  124  A    between atoms: _292  and  _294
REMARK  125  A    between atoms: _294  and  _295
REMARK  126  A    between atoms: _294  and  _297
REMARK  127  A    between atoms: _297  and  _298
REMARK  128  A    between atoms: _298  and  _299
REMARK  129  A    between atoms: _302  and  _304
REMARK  130  A    between atoms: _304  and  _305
REMARK  131  A    between atoms: _304  and  _307
REMARK  132  A    between atoms: _307  and  _308
REMARK  133  A    between atoms: _308  and  _309
REMARK  134  A    between atoms: _309  and  _310
REMARK  135  A    between atoms: _319  and  _321
REMARK  136  A    between atoms: _321  and  _322
REMARK  137  A    between atoms: _321  and  _324
REMARK  138  A    between atoms: _324  and  _325
REMARK  139  A    between atoms: _331  and  _333
REMARK  140  A    between atoms: _333  and  _334
REMARK  141  A    between atoms: _333  and  _336
REMARK  142  A    between atoms: _336  and  _337
REMARK  143  A    between atoms: _340  and  _342
REMARK  144  A    between atoms: _342  and  _343
REMARK  145  A    between atoms: _342  and  _345
REMARK  146  A    between atoms: _345  and  _346
REMARK  147  A    between atoms: _346  and  _347
REMARK  148  A    between atoms: _347  and  _348
REMARK  149  A    between atoms: _357  and  _359
REMARK  150  A    between atoms: _359  and  _360
REMARK  151  A    between atoms: _359  and  _362
REMARK  152  A    between atoms: _362  and  _363
REMARK  153  A    between atoms: _366  and  _368
REMARK  154  A    between atoms: _368  and  _369
REMARK  155  A    between atoms: _368  and  _371
REMARK  156  A    between atoms: _371  and  _372
REMARK  157  A    between atoms: _372  and  _373
REMARK  158  A    between atoms: _378  and  _380
REMARK  159  A    between atoms: _380  and  _381
REMARK  160  A    between atoms: _380  and  _383
REMARK  161  A    between atoms: _383  and  _384
REMARK  162  A    between atoms: _384  and  _385
REMARK  163  A    between atoms: _388  and  _390
REMARK  164  A    between atoms: _390  and  _391
REMARK  165  A    between atoms: _390  and  _393
REMARK  166  A    between atoms: _393  and  _394
REMARK  167  A    between atoms: _397  and  _399
REMARK  168  A    between atoms: _399  and  _400
REMARK  169  A    between atoms: _399  and  _402
REMARK  170  A    between atoms: _402  and  _403
REMARK  171  A    between atoms: _403  and  _404
REMARK  172  A    between atoms: _406  and  _408
REMARK  173  A    between atoms: _408  and  _409
REMARK  174  A    between atoms: _408  and  _411
REMARK  175  A    between atoms: _413  and  _415
REMARK  176  A    between atoms: _415  and  _416
REMARK  177  A    between atoms: _415  and  _418
REMARK  178  A    between atoms: _418  and  _419
REMARK  179  A    between atoms: _419  and  _420
REMARK  180  A    between atoms: _425  and  _427
REMARK  181  A    between atoms: _427  and  _428
REMARK  182  A    between atoms: _427  and  _430
REMARK  183  A    between atoms: _430  and  _431
REMARK  184  A    between atoms: _431  and  _432
REMARK  185  A    between atoms: _432  and  _433
REMARK  186  A    between atoms: _433  and  _434
REMARK  187  A    between atoms: _438  and  _440
REMARK  188  A    between atoms: _440  and  _441
REMARK  189  A    between atoms: _440  and  _443
REMARK  190  A    between atoms: _443  and  _444
REMARK  191  A    between atoms: _449  and  _450
REMARK  192  A    between atoms: _452  and  _454
REMARK  193  A    between atoms: _454  and  _455
REMARK  194  A    between atoms: _454  and  _457
REMARK  195  A    between atoms: _457  and  _458
REMARK  196  A    between atoms: _458  and  _459
REMARK  197  A    between atoms: _464  and  _466
REMARK  198  A    between atoms: _466  and  _467
REMARK  199  A    between atoms: _469  and  _471
REMARK  200  A    between atoms: _471  and  _472
REMARK  201  A    between atoms: _471  and  _474
REMARK  202  A    between atoms: _474  and  _475
REMARK  203  A    between atoms: _480  and  _482
REMARK  204  A    between atoms: _482  and  _483
REMARK  205  A    between atoms: _486  and  _488
REMARK  206  A    between atoms: _488  and  _489
REMARK  207  A    between atoms: _488  and  _491
REMARK  208  A    between atoms: _491  and  _492
REMARK  209  A    between atoms: _492  and  _493
REMARK  210  A    between atoms: _493  and  _494
REMARK  211  A    between atoms: _494  and  _495
REMARK  212  A    between atoms: _499  and  _501
REMARK  213  A    between atoms: _501  and  _502
REMARK  214  A    between atoms: _501  and  _504
REMARK  215  A    between atoms: _504  and  _505
REMARK  216  A    between atoms: _505  and  _506
REMARK  217  A    between atoms: _505  and  _507
REMARK  218  A    between atoms: _506  and  MG_619
REMARK  219  A    between atoms: _510  and  _512
REMARK  220  A    between atoms: _512  and  _513
REMARK  221  A    between atoms: _512  and  _515
REMARK  222  A    between atoms: _515  and  _516
REMARK  223  A    between atoms: _522  and  _524
REMARK  224  A    between atoms: _524  and  _525
REMARK  225  A    between atoms: _524  and  _527
REMARK  226  A    between atoms: _527  and  _528
REMARK  227  A    between atoms: _530  and  _532
REMARK  228  A    between atoms: _532  and  _533
REMARK  229  A    between atoms: _532  and  _535
REMARK  230  A    between atoms: _538  and  _540
REMARK  231  A    between atoms: _540  and  _541
REMARK  232  A    between atoms: _540  and  _543
REMARK  233  A    between atoms: _543  and  _544
REMARK  234  A    between atoms: _550  and  _552
REMARK  235  A    between atoms: _552  and  _553
REMARK  236  A    between atoms: _552  and  _555
REMARK  237  A    between atoms: _555  and  _556
REMARK  238  A    between atoms: _560  and  _561
REMARK  239  A    between atoms: _566  and  _568
REMARK  240  A    between atoms: _568  and  _569
REMARK  241  A    between atoms: _568  and  _571
REMARK  242  A    between atoms: _571  and  _572
REMARK  243  A    between atoms: _578  and  _580
REMARK  244  A    between atoms: _580  and  _581
REMARK  245  A    between atoms: _580  and  _583
REMARK  246  A    between atoms: _583  and  _584
REMARK  247  A    between atoms: _589  and  _590
REMARK  248  A    between atoms: _592  and  _594
REMARK  249  A    between atoms: _594  and  _595
REMARK  250  A    between atoms: _594  and  _597
REMARK  251  A    between atoms: _597  and  _598
REMARK  252  A    between atoms: _598  and  _599
REMARK  253  A    between atoms: _601  and  _603
REMARK  254  A    between atoms: _603  and  _604
REMARK  255  A    between atoms: _603  and  _606
REMARK  256  A    between atoms: _606  and  _607
REMARK  257  A    between atoms: _610  and  _612
REMARK  258  A    between atoms: _612  and  _613
REMARK  259  A    between atoms: _612  and  _615
REMARK  260  A    between atoms: _615  and  _616
REMARK                            x       y       z     vdW  Elec       q    Type
REMARK                         _______ _______ _______ _____ _____    ______ ____
ROOT
ATOM      1  C   ALA A   5      -0.269  14.197  46.792  0.00  0.00    +0.241 C 
ATOM      2  N   GLN A   6      -0.619  14.351  48.067  0.00  0.00    -0.297 N 
ATOM      3  H   GLN A   6      -1.226  13.639  48.522  0.00  0.00    +0.150 HD
ATOM      4  O   ALA A   5       0.468  14.984  46.202  0.00  0.00    -0.273 OA
ENDROOT
BRANCH   1   5
ATOM      5  CA  ALA A   5      -0.805  12.978  46.061  0.00  0.00    +0.149 C 
ATOM      6  CB  ALA A   5      -1.931  13.400  45.106  0.00  0.00    +0.031 C 
BRANCH   5   9
ATOM      7  C   GLY A   4      -0.503  10.932  47.353  0.00  0.00    +0.243 C 
ATOM      8  O   GLY A   4       0.686  10.819  47.032  0.00  0.00    -0.273 OA
ATOM      9  N   ALA A   5      -1.279  11.934  46.955  0.00  0.00    -0.297 N 
ATOM     10  H   ALA A   5      -2.261  11.973  47.295  0.00  0.00    +0.150 HD
BRANCH   7  11
ATOM     11  CA  GLY A   4      -1.147   9.914  48.263  0.00  0.00    +0.176 C 
BRANCH  11  14
ATOM     12  C   ALA A   3       0.407   8.298  49.138  0.00  0.00    +0.241 C 
ATOM     13  O   ALA A   3       0.631   8.998  50.125  0.00  0.00    -0.273 OA
ATOM     14  N   GLY A   4      -0.439   8.654  48.177  0.00  0.00    -0.295 N 
ATOM     15  H   GLY A   4      -0.593   8.027  47.362  0.00  0.00    +0.150 HD
BRANCH  12  16
ATOM     16  CA  ALA A   3       1.102   6.955  48.945  0.00  0.00    +0.149 C 
ATOM     17  CB  ALA A   3       0.066   5.846  48.839  0.00  0.00    +0.031 C 
BRANCH  16  19
ATOM     18  C   VAL A   2       3.176   7.317  50.170  0.00  0.00    +0.241 C 
ATOM     19  N   ALA A   3       2.044   6.647  50.012  0.00  0.00    -0.297 N 
ATOM     20  H   ALA A   3       1.821   5.875  50.672  0.00  0.00    +0.150 HD
ATOM     21  O   VAL A   2       3.526   8.242  49.440  0.00  0.00    -0.273 OA
BRANCH  18  22
ATOM     22  CA  VAL A   2       4.055   6.863  51.315  0.00  0.00    +0.148 C 
BRANCH  22  25
ATOM     23  C   SER A   1       6.170   5.688  51.261  0.00  0.00    +0.241 C 
ATOM     24  O   SER A   1       5.819   4.986  52.204  0.00  0.00    -0.274 OA
ATOM     25  N   VAL A   2       5.394   6.643  50.772  0.00  0.00    -0.297 N 
ATOM     26  H   VAL A   2       5.740   7.241  49.995  0.00  0.00    +0.150 HD
BRANCH  23  27
ATOM     27  CA  SER A   1       7.541   5.508  50.620  0.00  0.00    +0.174 C 
BRANCH  27  28
ATOM     28  N   SER A   1       8.514   5.274  51.671  0.00  0.00    -0.236 NA
ATOM     29  H   SER A   1       8.268   4.648  52.464  0.00  0.00    +0.142 HD
ENDBRANCH  27  28
BRANCH  27  30
ATOM     30  CB  SER A   1       7.486   4.334  49.639  0.00  0.00    +0.163 C 
BRANCH  30  31
ATOM     31  OG  SER A   1       6.490   4.599  48.660  0.00  0.00    -0.380 OA
ATOM     32  H   SER A   1       5.612   4.706  49.105  0.00  0.00    +0.211 HD
ENDBRANCH  30  31
ENDBRANCH  27  30
ENDBRANCH  23  27
ENDBRANCH  22  25
BRANCH  22  33
ATOM     33  CB  VAL A   2       4.038   7.947  52.424  0.00  0.00    +0.027 C 
ATOM     34  CG2 VAL A   2       4.991   7.567  53.543  0.00  0.00    +0.002 C 
ATOM     35  CG1 VAL A   2       2.614   8.113  52.974  0.00  0.00    +0.002 C 
ENDBRANCH  22  33
ENDBRANCH  18  22
ENDBRANCH  16  19
ENDBRANCH  12  16
ENDBRANCH  11  14
ENDBRANCH   7  11
ENDBRANCH   5   9
ENDBRANCH   1   5
BRANCH   2  36
ATOM     36  CA  GLN A   6      -0.160  15.511  48.840  0.00  0.00    +0.149 C 
BRANCH  36  37
ATOM     37  C   GLN A   6       1.301  15.365  49.248  0.00  0.00    +0.241 C 
ATOM     38  O   GLN A   6       1.742  14.273  49.598  0.00  0.00    -0.273 OA
ATOM     39  N   GLU A   7       2.040  16.471  49.202  0.00  0.00    -0.297 N 
ATOM     40  H   GLU A   7       1.594  17.359  48.897  0.00  0.00    +0.150 HD
BRANCH  39  41
ATOM     41  CA  GLU A   7       3.457  16.483  49.565  0.00  0.00    +0.149 C 
BRANCH  41  42
ATOM     42  C   GLU A   7       3.591  16.035  51.019  0.00  0.00    +0.241 C 
ATOM     43  O   GLU A   7       2.848  16.502  51.877  0.00  0.00    -0.273 OA
ATOM     44  N   LYS A   8       4.541  15.147  51.294  0.00  0.00    -0.298 N 
ATOM     45  H   LYS A   8       5.166  14.807  50.536  0.00  0.00    +0.150 HD
BRANCH  44  46
ATOM     46  CA  LYS A   8       4.712  14.647  52.654  0.00  0.00    +0.137 C 
BRANCH  46  47
ATOM     47  C   LYS A   8       6.034  13.906  52.852  0.00  0.00    +0.227 C 
ATOM     48  O   LYS A   8       6.867  13.847  51.955  0.00  0.00    -0.286 OA
ENDBRANCH  46  47
BRANCH  46  49
ATOM     49  CB  LYS A   8       3.562  13.693  53.003  0.00  0.00    +0.028 C 
BRANCH  49  50
ATOM     50  CG  LYS A   8       3.597  12.415  52.196  0.00  0.00    -0.000 C 
BRANCH  50  51
ATOM     51  CD  LYS A   8       2.527  11.414  52.620  0.00  0.00    -0.024 C 
BRANCH  51  52
ATOM     52  CE  LYS A   8       1.136  11.878  52.237  0.00  0.00    -0.086 C 
BRANCH  52  53
ATOM     53  NZ  LYS A   8       0.980  11.908  50.747  0.00  0.00    +0.380 N 
ATOM     54  HZ1 LYS A   8       0.020  12.228  50.507  0.00  0.00    -0.089 HD
ATOM     55  HZ2 LYS A   8       1.134  10.953  50.364  0.00  0.00    -0.089 HD
ATOM     56  HZ3 LYS A   8       1.678  12.563  50.340  0.00  0.00    -0.089 HD
ENDBRANCH  52  53
ENDBRANCH  51  52
ENDBRANCH  50  51
ENDBRANCH  49  50
ENDBRANCH  46  49
ENDBRANCH  44  46
ENDBRANCH  41  42
BRANCH  41  57
ATOM     57  CB  GLU A   7       4.034  17.893  49.418  0.00  0.00    +0.041 C 
BRANCH  57  58
ATOM     58  CG  GLU A   7       5.543  17.933  49.572  0.00  0.00    +0.116 C 
BRANCH  58  59
ATOM     59  CD  GLU A   7       6.255  17.328  48.372  0.00  0.00    +0.365 C 
ATOM     60  OE2 GLU A   7       7.251  16.592  48.561  0.00  0.00    -0.246 OA
ATOM     61  OE1 GLU A   7       5.821  17.604  47.233  0.00  0.00    -0.246 OA
ENDBRANCH  58  59
ENDBRANCH  57  58
ENDBRANCH  41  57
ENDBRANCH  39  41
ENDBRANCH  36  37
BRANCH  36  62
ATOM     62  CB  GLN A   6      -1.014  15.691  50.101  0.00  0.00    +0.039 C 
BRANCH  62  63
ATOM     63  CG  GLN A   6      -0.758  17.007  50.819  0.00  0.00    +0.087 C 
BRANCH  63  64
ATOM     64  CD  GLN A   6      -1.666  17.229  52.009  0.00  0.00    +0.219 C 
ATOM     65  NE2 GLN A   6      -1.143  17.906  53.033  0.00  0.00    -0.329 N 
ATOM     66 HE21 GLN A   6      -1.724  18.113  53.870  0.00  0.00    +0.145 HD
ATOM     67 HE22 GLN A   6      -0.154  18.226  52.994  0.00  0.00    +0.145 HD
ATOM     68  OE1 GLN A   6      -2.837  16.824  52.003  0.00  0.00    -0.275 OA
ENDBRANCH  63  64
ENDBRANCH  62  63
ENDBRANCH  36  62
ENDBRANCH   2  36
TORSDOF 30
REMARK  Name = ../refined-set-2016/3dnt/3dnt_pocket.pdb
REMARK  260 active torsions:
REMARK  status: ('A' for Active; 'I' for Inactive)
REMARK    1  A    between atoms: _1  and  _3
REMARK    2  A    between atoms: _3  and  _4
REMARK    3  A    between atoms: _3  and  _6
REMARK    4  A    between atoms: _6  and  _7
REMARK    5  A    between atoms: _12  and  _14
REMARK    6  A    between atoms: _14  and  _15
REMARK    7  A    between atoms: _14  and  _17
REMARK    8  A    between atoms: _17  and  _18
REMARK    9  A    between atoms: _21  and  _23
REMARK   10  A    between atoms: _23  and  _24
REMARK   11  A    between atoms: _23  and  _26
REMARK   12  A    between atoms: _26  and  _27
REMARK   13  A    between atoms: _31  and  _32
REMARK   14  A    between atoms: _37  and  _39
REMARK   15  A    between atoms: _39  and  _40
REMARK   16  A    between atoms: _39  and  _42
REMARK   17  A    between atoms: _42  and  _43
REMARK   18  A    between atoms: _46  and  _48
REMARK   19  A    between atoms: _48  and  _49
REMARK   20  A    between atoms: _48  and  _51
REMARK   21  A    between atoms: _51  and  _52
REMARK   22  A    between atoms: _54  and  _56
REMARK   23  A    between atoms: _56  and  _57
REMARK   24  A    between atoms: _56  and  _59
REMARK   25  A    between atoms: _59  and  _60
REMARK   26  A    between atoms: _62  and  _64
REMARK   27  A    between atoms: _64  and  _65
REMARK   28  A    between atoms: _64  and  _67
REMARK   29  A    between atoms: _70  and  _72
REMARK   30  A    between atoms: _72  and  _73
REMARK   31  A    between atoms: _75  and  _77
REMARK   32  A    between atoms: _77  and  _78
REMARK   33  A    between atoms: _77  and  _80
REMARK   34  A    between atoms: _80  and  _81
REMARK   35  A    between atoms: _83  and  _85
REMARK   36  A    between atoms: _85  and  _86
REMARK   37  A    between atoms: _85  and  _88
REMARK   38  A    between atoms: _91  and  _93
REMARK   39  A    between atoms: _93  and  _94
REMARK   40  A    between atoms: _97  and  _99
REMARK   41  A    between atoms: _99  and  _100
REMARK   42  A    between atoms: _102  and  _104
REMARK   43  A    between atoms: _104  and  _105
REMARK   44  A    between atoms: _108  and  _110
REMARK   45  A    between atoms: _110  and  _111
REMARK   46  A    between atoms: _110  and  _113
REMARK   47  A    between atoms: _113  and  _114
REMARK   48  A    between atoms: _114  and  _115
REMARK   49  A    between atoms: _120  and  _122
REMARK   50  A    between atoms: _122  and  _123
REMARK   51  A    between atoms: _122  and  _125
REMARK   52  A    between atoms: _125  and  _126
REMARK   53  A    between atoms: _126  and  _127
REMARK   54  A    between atoms: _130  and  _132
REMARK   55  A    between atoms: _132  and  _133
REMARK   56  A    between atoms: _132  and  _135
REMARK   57  A    between atoms: _135  and  _136
REMARK   58  A    between atoms: _136  and  _137
REMARK   59  A    between atoms: _137  and  _138
REMARK   60  A    between atoms: _138  and  _139
REMARK   61  A    between atoms: _143  and  _145
REMARK   62  A    between atoms: _145  and  _146
REMARK   63  A    between atoms: _145  and  _148
REMARK   64  A    between atoms: _148  and  _149
REMARK   65  A    between atoms: _152  and  _154
REMARK   66  A    between atoms: _154  and  _155
REMARK   67  A    between atoms: _154  and  _157
REMARK   68  A    between atoms: _157  and  _158
REMARK   69  A    between atoms: _163  and  _165
REMARK   70  A    between atoms: _165  and  _166
REMARK   71  A    between atoms: _165  and  _168
REMARK   72  A    between atoms: _168  and  _169
REMARK   73  A    between atoms: _172  and  _174
REMARK   74  A    between atoms: _174  and  _175
REMARK   75  A    between atoms: _174  and  _177
REMARK   76  A    between atoms: _177  and  _178
REMARK   77  A    between atoms: _181  and  _183
REMARK   78  A    between atoms: _183  and  _184
REMARK   79  A    between atoms: _183  and  _186
REMARK   80  A    between atoms: _186  and  _187
REMARK   81  A    between atoms: _187  and  _188
REMARK   82  A    between atoms: _188  and  _189
REMARK   83  A    between atoms: _189  and  _190
REMARK   84  A    between atoms: _194  and  _196
REMARK   85  A    between atoms: _196  and  _197
REMARK   86  A    between atoms: _196  and  _199
REMARK   87  A    between atoms: _199  and  _200
REMARK   88  A    between atoms: _203  and  _205
REMARK   89  A    between atoms: _205  and  _206
REMARK   90  A    between atoms: _205  and  _208
REMARK   91  A    between atoms: _208  and  _209
REMARK   92  A    between atoms: _212  and  _214
REMARK   93  A    between atoms: _214  and  _215
REMARK   94  A    between atoms: _214  and  _217
REMARK   95  A    between atoms: _217  and  _218
REMARK   96  A    between atoms: _220  and  _222
REMARK   97  A    between atoms: _222  and  _223
REMARK   98  A    between atoms: _222  and  _225
REMARK   99  A    between atoms: _225  and  _226
REMARK  100  A    between atoms: _226  and  _227
REMARK  101  A    between atoms: _230  and  _232
REMARK  102  A    between atoms: _232  and  _233
REMARK  103  A    between atoms: _232  and  _235
REMARK  104  A    between atoms: _235  and  _236
REMARK  105  A    between atoms: _239  and  _241
REMARK  106  A    between atoms: _241  and  _242
REMARK  107  A    between atoms: _241  and  _244
REMARK  108  A    between atoms: _248  and  _249
REMARK  109  A    between atoms: _254  and  _256
REMARK  110  A    between atoms: _256  and  _257
REMARK  111  A    between atoms: _256  and  _259
REMARK  112  A    between atoms: _259  and  _260
REMARK  113  A    between atoms: _263  and  _265
REMARK  114  A    between atoms: _265  and  _266
REMARK  115  A    between atoms: _269  and  _271
REMARK  116  A    between atoms: _271  and  _272
REMARK  117  A    between atoms: _271  and  _274
REMARK  118  A    between atoms: _274  and  _275
REMARK  119  A    between atoms: _278  and  _280
REMARK  120  A    between atoms: _280  and  _281
REMARK  121  A    between atoms: _284  and  _286
REMARK  122  A    between atoms: _286  and  _287
REMARK  123  A    between atoms: _286  and  _289
REMARK  124  A    between atoms: _292  and  _294
REMARK  125  A    between atoms: _294  and  _295
REMARK  126  A    between atoms: _294  and  _297
REMARK  127  A    between atoms: _297  and  _298
REMARK  128  A    between atoms: _298  and  _299
REMARK  129  A    between atoms: _302  and  _304
REMARK  130  A    between atoms: _304  and  _305
REMARK  131  A    between atoms: _304  and  _307
REMARK  132  A    between atoms: _307  and  _308
REMARK  133  A    between atoms: _308  and  _309
REMARK  134  A    between atoms: _309  and  _310
REMARK  135  A    between atoms: _319  and  _321
REMARK  136  A    between atoms: _321  and  _322
REMARK  137  A    between atoms: _321  and  _324
REMARK  138  A    between atoms: _324  and  _325
REMARK  139  A    between atoms: _331  and  _333
REMARK  140  A    between atoms: _333  and  _334
REMARK  141  A    between atoms: _333  and  _336
REMARK  142  A    between atoms: _336  and  _337
REMARK  143  A    between atoms: _340  and  _342
REMARK  144  A    between atoms: _342  and  _343
REMARK  145  A    between atoms: _342  and  _345
REMARK  146  A    between atoms: _345  and  _346
REMARK  147  A    between atoms: _346  and  _347
REMARK  148  A    between atoms: _347  and  _348
REMARK  149  A    between atoms: _357  and  _359
REMARK  150  A    between atoms: _359  and  _360
REMARK  151  A    between atoms: _359  and  _362
REMARK  152  A    between atoms: _362  and  _363
REMARK  153  A    between atoms: _366  and  _368
REMARK  154  A    between atoms: _368  and  _369
REMARK  155  A    between atoms: _368  and  _371
REMARK  156  A    between atoms: _371  and  _372
REMARK  157  A    between atoms: _372  and  _373
REMARK  158  A    between atoms: _378  and  _380
REMARK  159  A    between atoms: _380  and  _381
REMARK  160  A    between atoms: _380  and  _383
REMARK  161  A    between atoms: _383  and  _384
REMARK  162  A    between atoms: _384  and  _385
REMARK  163  A    between atoms: _388  and  _390
REMARK  164  A    between atoms: _390  and  _391
REMARK  165  A    between atoms: _390  and  _393
REMARK  166  A    between atoms: _393  and  _394
REMARK  167  A    between atoms: _397  and  _399
REMARK  168  A    between atoms: _399  and  _400
REMARK  169  A    between atoms: _399  and  _402
REMARK  170  A    between atoms: _402  and  _403
REMARK  171  A    between atoms: _403  and  _404
REMARK  172  A    between atoms: _406  and  _408
REMARK  173  A    between atoms: _408  and  _409
REMARK  174  A    between atoms: _408  and  _411
REMARK  175  A    between atoms: _413  and  _415
REMARK  176  A    between atoms: _415  and  _416
REMARK  177  A    between atoms: _415  and  _418
REMARK  178  A    between atoms: _418  and  _419
REMARK  179  A    between atoms: _419  and  _420
REMARK  180  A    between atoms: _425  and  _427
REMARK  181  A    between atoms: _427  and  _428
REMARK  182  A    between atoms: _427  and  _430
REMARK  183  A    between atoms: _430  and  _431
REMARK  184  A    between atoms: _431  and  _432
REMARK  185  A    between atoms: _432  and  _433
REMARK  186  A    between atoms: _433  and  _434
REMARK  187  A    between atoms: _438  and  _440
REMARK  188  A    between atoms: _440  and  _441
REMARK  189  A    between atoms: _440  and  _443
REMARK  190  A    between atoms: _443  and  _444
REMARK  191  A    between atoms: _449  and  _450
REMARK  192  A    between atoms: _452  and  _454
REMARK  193  A    between atoms: _454  and  _455
REMARK  194  A    between atoms: _454  and  _457
REMARK  195  A    between atoms: _457  and  _458
REMARK  196  A    between atoms: _458  and  _459
REMARK  197  A    between atoms: _464  and  _466
REMARK  198  A    between atoms: _466  and  _467
REMARK  199  A    between atoms: _469  and  _471
REMARK  200  A    between atoms: _471  and  _472
REMARK  201  A    between atoms: _471  and  _474
REMARK  202  A    between atoms: _474  and  _475
REMARK  203  A    between atoms: _480  and  _482
REMARK  204  A    between atoms: _482  and  _483
REMARK  205  A    between atoms: _486  and  _488
REMARK  206  A    between atoms: _488  and  _489
REMARK  207  A    between atoms: _488  and  _491
REMARK  208  A    between atoms: _491  and  _492
REMARK  209  A    between atoms: _492  and  _493
REMARK  210  A    between atoms: _493  and  _494
REMARK  211  A    between atoms: _494  and  _495
REMARK  212  A    between atoms: _499  and  _501
REMARK  213  A    between atoms: _501  and  _502
REMARK  214  A    between atoms: _501  and  _504
REMARK  215  A    between atoms: _504  and  _505
REMARK  216  A    between atoms: _505  and  _506
REMARK  217  A    between atoms: _505  and  _507
REMARK  218  A    between atoms: _506  and  MG_619
REMARK  219  A    between atoms: _510  and  _512
REMARK  220  A    between atoms: _512  and  _513
REMARK  221  A    between atoms: _512  and  _515
REMARK  222  A    between atoms: _515  and  _516
REMARK  223  A    between atoms: _522  and  _524
REMARK  224  A    between atoms: _524  and  _525
REMARK  225  A    between atoms: _524  and  _527
REMARK  226  A    between atoms: _527  and  _528
REMARK  227  A    between atoms: _530  and  _532
REMARK  228  A    between atoms: _532  and  _533
REMARK  229  A    between atoms: _532  and  _535
REMARK  230  A    between atoms: _538  and  _540
REMARK  231  A    between atoms: _540  and  _541
REMARK  232  A    between atoms: _540  and  _543
REMARK  233  A    between atoms: _543  and  _544
REMARK  234  A    between atoms: _550  and  _552
REMARK  235  A    between atoms: _552  and  _553
REMARK  236  A    between atoms: _552  and  _555
REMARK  237  A    between atoms: _555  and  _556
REMARK  238  A    between atoms: _560  and  _561
REMARK  239  A    between atoms: _566  and  _568
REMARK  240  A    between atoms: _568  and  _569
REMARK  241  A    between atoms: _568  and  _571
REMARK  242  A    between atoms: _571  and  _572
REMARK  243  A    between atoms: _578  and  _580
REMARK  244  A    between atoms: _580  and  _581
REMARK  245  A    between atoms: _580  and  _583
REMARK  246  A    between atoms: _583  and  _584
REMARK  247  A    between atoms: _589  and  _590
REMARK  248  A    between atoms: _592  and  _594
REMARK  249  A    between atoms: _594  and  _595
REMARK  250  A    between atoms: _594  and  _597
REMARK  251  A    between atoms: _597  and  _598
REMARK  252  A    between atoms: _598  and  _599
REMARK  253  A    between atoms: _601  and  _603
REMARK  254  A    between atoms: _603  and  _604
REMARK  255  A    between atoms: _603  and  _606
REMARK  256  A    between atoms: _606  and  _607
REMARK  257  A    between atoms: _610  and  _612
REMARK  258  A    between atoms: _612  and  _613
REMARK  259  A    between atoms: _612  and  _615
REMARK  260  A    between atoms: _615  and  _616
REMARK                            x       y       z     vdW  Elec       q    Type
REMARK                         _______ _______ _______ _____ _____    ______ ____
ROOT
ATOM      1  C   ILE A   3       3.245  12.176  58.566  0.00  0.00    +0.241 C 
ATOM      2  O   ILE A   3       2.412  12.698  59.288  0.00  0.00    -0.273 OA
ATOM      3  N   ILE A   4       4.149  12.872  57.886  0.00  0.00    -0.297 N 
ATOM      4  H   ILE A   4       4.818  12.367  57.271  0.00  0.00    +0.150 HD
ENDROOT
BRANCH   3   5
ATOM      5  CA  ILE A   4       4.229  14.318  57.978  0.00  0.00    +0.149 C 
BRANCH   5   6
ATOM      6  C   ILE A   4       3.724  14.923  56.675  0.00  0.00    +0.241 C 
ATOM      7  N   LYS A   5       2.640  15.682  56.739  0.00  0.00    -0.297 N 
ATOM      8  H   LYS A   5       2.173  15.838  57.655  0.00  0.00    +0.150 HD
ATOM      9  O   ILE A   4       4.305  14.692  55.624  0.00  0.00    -0.273 OA
BRANCH   7  10
ATOM     10  CA  LYS A   5       2.099  16.298  55.539  0.00  0.00    +0.149 C 
BRANCH  10  11
ATOM     11  C   LYS A   5       2.529  17.769  55.497  0.00  0.00    +0.241 C 
ATOM     12  O   LYS A   5       2.485  18.483  56.507  0.00  0.00    -0.273 OA
ATOM     13  N   LEU A   6       2.995  18.206  54.329  0.00  0.00    -0.298 N 
ATOM     14  H   LEU A   6       3.036  17.553  53.521  0.00  0.00    +0.150 HD
BRANCH  13  15
ATOM     15  CA  LEU A   6       3.449  19.583  54.160  0.00  0.00    +0.137 C 
BRANCH  15  16
ATOM     16  C   LEU A   6       2.471  20.399  53.331  0.00  0.00    +0.227 C 
ATOM     17  O   LEU A   6       1.599  19.849  52.660  0.00  0.00    -0.286 OA
ENDBRANCH  15  16
BRANCH  15  18
ATOM     18  CB  LEU A   6       4.824  19.631  53.482  0.00  0.00    +0.028 C 
BRANCH  18  19
ATOM     19  CG  LEU A   6       6.041  18.905  54.070  0.00  0.00    +0.002 C 
ATOM     20  CD2 LEU A   6       6.157  19.177  55.558  0.00  0.00    +0.000 C 
ATOM     21  CD1 LEU A   6       5.920  17.421  53.815  0.00  0.00    +0.000 C 
ENDBRANCH  18  19
ENDBRANCH  15  18
ENDBRANCH  13  15
ENDBRANCH  10  11
BRANCH  10  22
ATOM     22  CB  LYS A   5       0.565  16.119  55.508  0.00  0.00    +0.029 C 
BRANCH  22  23
ATOM     23  CG  LYS A   5       0.169  14.614  55.495  0.00  0.00    +0.000 C 
BRANCH  23  24
ATOM     24  CD  LYS A   5      -1.325  14.334  55.599  0.00  0.00    -0.024 C 
BRANCH  24  25
ATOM     25  CE  LYS A   5      -2.002  14.395  54.239  0.00  0.00    -0.086 C 
BRANCH  25  26
ATOM     26  NZ  LYS A   5      -3.450  14.068  54.324  0.00  0.00    +0.380 N 
ATOM     27  HZ1 LYS A   5      -3.921  14.748  54.954  0.00  0.00    -0.089 HD
ATOM     28  HZ2 LYS A   5      -3.565  13.106  54.703  0.00  0.00    -0.089 HD
ATOM     29  HZ3 LYS A   5      -3.872  14.121  53.375  0.00  0.00    -0.089 HD
ENDBRANCH  25  26
ENDBRANCH  24  25
ENDBRANCH  23  24
ENDBRANCH  22  23
ENDBRANCH  10  22
ENDBRANCH   7  10
ENDBRANCH   5   6
BRANCH   5  30
ATOM     30  CB  ILE A   4       5.695  14.745  58.190  0.00  0.00    +0.027 C 
ATOM     31  CG2 ILE A   4       5.773  16.258  58.412  0.00  0.00    +0.002 C 
BRANCH  30  32
ATOM     32  CG1 ILE A   4       6.308  13.968  59.358  0.00  0.00    +0.002 C 
ATOM     33  CD1 ILE A   4       5.681  14.275  60.651  0.00  0.00    +0.000 C 
ENDBRANCH  30  32
ENDBRANCH   5  30
ENDBRANCH   3   5
BRANCH   1  34
ATOM     34  CA  ILE A   3       3.308  10.659  58.418  0.00  0.00    +0.149 C 
BRANCH  34  37
ATOM     35  C   HIS A   2       4.466   9.863  60.412  0.00  0.00    +0.241 C 
ATOM     36  O   HIS A   2       5.545   9.796  59.828  0.00  0.00    -0.273 OA
ATOM     37  N   ILE A   3       3.334  10.230  59.814  0.00  0.00    -0.297 N 
ATOM     38  H   ILE A   3       2.446  10.211  60.355  0.00  0.00    +0.150 HD
BRANCH  35  39
ATOM     39  CA  HIS A   2       4.373   9.534  61.895  0.00  0.00    +0.155 C 
BRANCH  39  42
ATOM     40  C   THR A   1       4.859   7.485  63.122  0.00  0.00    +0.241 C 
ATOM     41  O   THR A   1       3.703   7.407  63.563  0.00  0.00    -0.274 OA
ATOM     42  N   HIS A   2       5.259   8.449  62.296  0.00  0.00    -0.297 N 
ATOM     43  H   HIS A   2       6.231   8.427  61.927  0.00  0.00    +0.150 HD
BRANCH  40  44
ATOM     44  CA  THR A   1       5.914   6.450  63.511  0.00  0.00    +0.172 C 
BRANCH  44  45
ATOM     45  N   THR A   1       7.072   6.474  62.644  0.00  0.00    -0.236 NA
ATOM     46  H   THR A   1       7.622   7.353  62.562  0.00  0.00    +0.142 HD
ENDBRANCH  44  45
BRANCH  44  47
ATOM     47  CB  THR A   1       6.331   6.747  64.986  0.00  0.00    +0.135 C 
ATOM     48  CG2 THR A   1       7.134   5.609  65.599  0.00  0.00    +0.034 C 
BRANCH  47  49
ATOM     49  OG1 THR A   1       7.121   7.945  64.996  0.00  0.00    -0.383 OA
ATOM     50  HG1 THR A   1       6.585   8.695  64.636  0.00  0.00    +0.210 HD
ENDBRANCH  47  49
ENDBRANCH  44  47
ENDBRANCH  40  44
ENDBRANCH  39  42
BRANCH  39  51
ATOM     51  CB  HIS A   2       4.742  10.829  62.659  0.00  0.00    +0.076 C 
BRANCH  51  52
ATOM     52  CG  HIS A   2       4.468  10.779  64.124  0.00  0.00    +0.082 A 
ATOM     53  ND1 HIS A   2       5.180   9.980  64.991  0.00  0.00    -0.227 NA
ATOM     54  CE1 HIS A   2       4.702  10.130  66.215  0.00  0.00    +0.199 A 
ATOM     55  NE2 HIS A   2       3.710  11.001  66.171  0.00  0.00    -0.221 NA
ATOM     56  CD2 HIS A   2       3.544  11.424  64.877  0.00  0.00    +0.115 A 
ENDBRANCH  51  52
ENDBRANCH  39  51
ENDBRANCH  35  39
ENDBRANCH  34  37
BRANCH  34  57
ATOM     57  CB  ILE A   3       2.058  10.101  57.673  0.00  0.00    +0.027 C 
ATOM     58  CG2 ILE A   3       1.776  10.914  56.406  0.00  0.00    +0.002 C 
BRANCH  57  59
ATOM     59  CG1 ILE A   3       2.337   8.640  57.280  0.00  0.00    +0.002 C 
ATOM     60  CD1 ILE A   3       1.108   7.813  56.881  0.00  0.00    +0.000 C 
ENDBRANCH  57  59
ENDBRANCH  34  57
ENDBRANCH   1  34
TORSDOF 27
REMARK  Name = ../refined-set-2016/3dnt/3dnt_pocket.pdb
REMARK  260 active torsions:
REMARK  status: ('A' for Active; 'I' for Inactive)
REMARK    1  A    between atoms: _1  and  _3
REMARK    2  A    between atoms: _3  and  _4
REMARK    3  A    between atoms: _3  and  _6
REMARK    4  A    between atoms: _6  and  _7
REMARK    5  A    between atoms: _12  and  _14
REMARK    6  A    between atoms: _14  and  _15
REMARK    7  A    between atoms: _14  and  _17
REMARK    8  A    between atoms: _17  and  _18
REMARK    9  A    between atoms: _21  and  _23
REMARK   10  A    between atoms: _23  and  _24
REMARK   11  A    between atoms: _23  and  _26
REMARK   12  A    between atoms: _26  and  _27
REMARK   13  A    between atoms: _31  and  _32
REMARK   14  A    between atoms: _37  and  _39
REMARK   15  A    between atoms: _39  and  _40
REMARK   16  A    between atoms: _39  and  _42
REMARK   17  A    between atoms: _42  and  _43
REMARK   18  A    between atoms: _46  and  _48
REMARK   19  A    between atoms: _48  and  _49
REMARK   20  A    between atoms: _48  and  _51
REMARK   21  A    between atoms: _51  and  _52
REMARK   22  A    between atoms: _54  and  _56
REMARK   23  A    between atoms: _56  and  _57
REMARK   24  A    between atoms: _56  and  _59
REMARK   25  A    between atoms: _59  and  _60
REMARK   26  A    between atoms: _62  and  _64
REMARK   27  A    between atoms: _64  and  _65
REMARK   28  A    between atoms: _64  and  _67
REMARK   29  A    between atoms: _70  and  _72
REMARK   30  A    between atoms: _72  and  _73
REMARK   31  A    between atoms: _75  and  _77
REMARK   32  A    between atoms: _77  and  _78
REMARK   33  A    between atoms: _77  and  _80
REMARK   34  A    between atoms: _80  and  _81
REMARK   35  A    between atoms: _83  and  _85
REMARK   36  A    between atoms: _85  and  _86
REMARK   37  A    between atoms: _85  and  _88
REMARK   38  A    between atoms: _91  and  _93
REMARK   39  A    between atoms: _93  and  _94
REMARK   40  A    between atoms: _97  and  _99
REMARK   41  A    between atoms: _99  and  _100
REMARK   42  A    between atoms: _102  and  _104
REMARK   43  A    between atoms: _104  and  _105
REMARK   44  A    between atoms: _108  and  _110
REMARK   45  A    between atoms: _110  and  _111
REMARK   46  A    between atoms: _110  and  _113
REMARK   47  A    between atoms: _113  and  _114
REMARK   48  A    between atoms: _114  and  _115
REMARK   49  A    between atoms: _120  and  _122
REMARK   50  A    between atoms: _122  and  _123
REMARK   51  A    between atoms: _122  and  _125
REMARK   52  A    between atoms: _125  and  _126
REMARK   53  A    between atoms: _126  and  _127
REMARK   54  A    between atoms: _130  and  _132
REMARK   55  A    between atoms: _132  and  _133
REMARK   56  A    between atoms: _132  and  _135
REMARK   57  A    between atoms: _135  and  _136
REMARK   58  A    between atoms: _136  and  _137
REMARK   59  A    between atoms: _137  and  _138
REMARK   60  A    between atoms: _138  and  _139
REMARK   61  A    between atoms: _143  and  _145
REMARK   62  A    between atoms: _145  and  _146
REMARK   63  A    between atoms: _145  and  _148
REMARK   64  A    between atoms: _148  and  _149
REMARK   65  A    between atoms: _152  and  _154
REMARK   66  A    between atoms: _154  and  _155
REMARK   67  A    between atoms: _154  and  _157
REMARK   68  A    between atoms: _157  and  _158
REMARK   69  A    between atoms: _163  and  _165
REMARK   70  A    between atoms: _165  and  _166
REMARK   71  A    between atoms: _165  and  _168
REMARK   72  A    between atoms: _168  and  _169
REMARK   73  A    between atoms: _172  and  _174
REMARK   74  A    between atoms: _174  and  _175
REMARK   75  A    between atoms: _174  and  _177
REMARK   76  A    between atoms: _177  and  _178
REMARK   77  A    between atoms: _181  and  _183
REMARK   78  A    between atoms: _183  and  _184
REMARK   79  A    between atoms: _183  and  _186
REMARK   80  A    between atoms: _186  and  _187
REMARK   81  A    between atoms: _187  and  _188
REMARK   82  A    between atoms: _188  and  _189
REMARK   83  A    between atoms: _189  and  _190
REMARK   84  A    between atoms: _194  and  _196
REMARK   85  A    between atoms: _196  and  _197
REMARK   86  A    between atoms: _196  and  _199
REMARK   87  A    between atoms: _199  and  _200
REMARK   88  A    between atoms: _203  and  _205
REMARK   89  A    between atoms: _205  and  _206
REMARK   90  A    between atoms: _205  and  _208
REMARK   91  A    between atoms: _208  and  _209
REMARK   92  A    between atoms: _212  and  _214
REMARK   93  A    between atoms: _214  and  _215
REMARK   94  A    between atoms: _214  and  _217
REMARK   95  A    between atoms: _217  and  _218
REMARK   96  A    between atoms: _220  and  _222
REMARK   97  A    between atoms: _222  and  _223
REMARK   98  A    between atoms: _222  and  _225
REMARK   99  A    between atoms: _225  and  _226
REMARK  100  A    between atoms: _226  and  _227
REMARK  101  A    between atoms: _230  and  _232
REMARK  102  A    between atoms: _232  and  _233
REMARK  103  A    between atoms: _232  and  _235
REMARK  104  A    between atoms: _235  and  _236
REMARK  105  A    between atoms: _239  and  _241
REMARK  106  A    between atoms: _241  and  _242
REMARK  107  A    between atoms: _241  and  _244
REMARK  108  A    between atoms: _248  and  _249
REMARK  109  A    between atoms: _254  and  _256
REMARK  110  A    between atoms: _256  and  _257
REMARK  111  A    between atoms: _256  and  _259
REMARK  112  A    between atoms: _259  and  _260
REMARK  113  A    between atoms: _263  and  _265
REMARK  114  A    between atoms: _265  and  _266
REMARK  115  A    between atoms: _269  and  _271
REMARK  116  A    between atoms: _271  and  _272
REMARK  117  A    between atoms: _271  and  _274
REMARK  118  A    between atoms: _274  and  _275
REMARK  119  A    between atoms: _278  and  _280
REMARK  120  A    between atoms: _280  and  _281
REMARK  121  A    between atoms: _284  and  _286
REMARK  122  A    between atoms: _286  and  _287
REMARK  123  A    between atoms: _286  and  _289
REMARK  124  A    between atoms: _292  and  _294
REMARK  125  A    between atoms: _294  and  _295
REMARK  126  A    between atoms: _294  and  _297
REMARK  127  A    between atoms: _297  and  _298
REMARK  128  A    between atoms: _298  and  _299
REMARK  129  A    between atoms: _302  and  _304
REMARK  130  A    between atoms: _304  and  _305
REMARK  131  A    between atoms: _304  and  _307
REMARK  132  A    between atoms: _307  and  _308
REMARK  133  A    between atoms: _308  and  _309
REMARK  134  A    between atoms: _309  and  _310
REMARK  135  A    between atoms: _319  and  _321
REMARK  136  A    between atoms: _321  and  _322
REMARK  137  A    between atoms: _321  and  _324
REMARK  138  A    between atoms: _324  and  _325
REMARK  139  A    between atoms: _331  and  _333
REMARK  140  A    between atoms: _333  and  _334
REMARK  141  A    between atoms: _333  and  _336
REMARK  142  A    between atoms: _336  and  _337
REMARK  143  A    between atoms: _340  and  _342
REMARK  144  A    between atoms: _342  and  _343
REMARK  145  A    between atoms: _342  and  _345
REMARK  146  A    between atoms: _345  and  _346
REMARK  147  A    between atoms: _346  and  _347
REMARK  148  A    between atoms: _347  and  _348
REMARK  149  A    between atoms: _357  and  _359
REMARK  150  A    between atoms: _359  and  _360
REMARK  151  A    between atoms: _359  and  _362
REMARK  152  A    between atoms: _362  and  _363
REMARK  153  A    between atoms: _366  and  _368
REMARK  154  A    between atoms: _368  and  _369
REMARK  155  A    between atoms: _368  and  _371
REMARK  156  A    between atoms: _371  and  _372
REMARK  157  A    between atoms: _372  and  _373
REMARK  158  A    between atoms: _378  and  _380
REMARK  159  A    between atoms: _380  and  _381
REMARK  160  A    between atoms: _380  and  _383
REMARK  161  A    between atoms: _383  and  _384
REMARK  162  A    between atoms: _384  and  _385
REMARK  163  A    between atoms: _388  and  _390
REMARK  164  A    between atoms: _390  and  _391
REMARK  165  A    between atoms: _390  and  _393
REMARK  166  A    between atoms: _393  and  _394
REMARK  167  A    between atoms: _397  and  _399
REMARK  168  A    between atoms: _399  and  _400
REMARK  169  A    between atoms: _399  and  _402
REMARK  170  A    between atoms: _402  and  _403
REMARK  171  A    between atoms: _403  and  _404
REMARK  172  A    between atoms: _406  and  _408
REMARK  173  A    between atoms: _408  and  _409
REMARK  174  A    between atoms: _408  and  _411
REMARK  175  A    between atoms: _413  and  _415
REMARK  176  A    between atoms: _415  and  _416
REMARK  177  A    between atoms: _415  and  _418
REMARK  178  A    between atoms: _418  and  _419
REMARK  179  A    between atoms: _419  and  _420
REMARK  180  A    between atoms: _425  and  _427
REMARK  181  A    between atoms: _427  and  _428
REMARK  182  A    between atoms: _427  and  _430
REMARK  183  A    between atoms: _430  and  _431
REMARK  184  A    between atoms: _431  and  _432
REMARK  185  A    between atoms: _432  and  _433
REMARK  186  A    between atoms: _433  and  _434
REMARK  187  A    between atoms: _438  and  _440
REMARK  188  A    between atoms: _440  and  _441
REMARK  189  A    between atoms: _440  and  _443
REMARK  190  A    between atoms: _443  and  _444
REMARK  191  A    between atoms: _449  and  _450
REMARK  192  A    between atoms: _452  and  _454
REMARK  193  A    between atoms: _454  and  _455
REMARK  194  A    between atoms: _454  and  _457
REMARK  195  A    between atoms: _457  and  _458
REMARK  196  A    between atoms: _458  and  _459
REMARK  197  A    between atoms: _464  and  _466
REMARK  198  A    between atoms: _466  and  _467
REMARK  199  A    between atoms: _469  and  _471
REMARK  200  A    between atoms: _471  and  _472
REMARK  201  A    between atoms: _471  and  _474
REMARK  202  A    between atoms: _474  and  _475
REMARK  203  A    between atoms: _480  and  _482
REMARK  204  A    between atoms: _482  and  _483
REMARK  205  A    between atoms: _486  and  _488
REMARK  206  A    between atoms: _488  and  _489
REMARK  207  A    between atoms: _488  and  _491
REMARK  208  A    between atoms: _491  and  _492
REMARK  209  A    between atoms: _492  and  _493
REMARK  210  A    between atoms: _493  and  _494
REMARK  211  A    between atoms: _494  and  _495
REMARK  212  A    between atoms: _499  and  _501
REMARK  213  A    between atoms: _501  and  _502
REMARK  214  A    between atoms: _501  and  _504
REMARK  215  A    between atoms: _504  and  _505
REMARK  216  A    between atoms: _505  and  _506
REMARK  217  A    between atoms: _505  and  _507
REMARK  218  A    between atoms: _506  and  MG_619
REMARK  219  A    between atoms: _510  and  _512
REMARK  220  A    between atoms: _512  and  _513
REMARK  221  A    between atoms: _512  and  _515
REMARK  222  A    between atoms: _515  and  _516
REMARK  223  A    between atoms: _522  and  _524
REMARK  224  A    between atoms: _524  and  _525
REMARK  225  A    between atoms: _524  and  _527
REMARK  226  A    between atoms: _527  and  _528
REMARK  227  A    between atoms: _530  and  _532
REMARK  228  A    between atoms: _532  and  _533
REMARK  229  A    between atoms: _532  and  _535
REMARK  230  A    between atoms: _538  and  _540
REMARK  231  A    between atoms: _540  and  _541
REMARK  232  A    between atoms: _540  and  _543
REMARK  233  A    between atoms: _543  and  _544
REMARK  234  A    between atoms: _550  and  _552
REMARK  235  A    between atoms: _552  and  _553
REMARK  236  A    between atoms: _552  and  _555
REMARK  237  A    between atoms: _555  and  _556
REMARK  238  A    between atoms: _560  and  _561
REMARK  239  A    between atoms: _566  and  _568
REMARK  240  A    between atoms: _568  and  _569
REMARK  241  A    between atoms: _568  and  _571
REMARK  242  A    between atoms: _571  and  _572
REMARK  243  A    between atoms: _578  and  _580
REMARK  244  A    between atoms: _580  and  _581
REMARK  245  A    between atoms: _580  and  _583
REMARK  246  A    between atoms: _583  and  _584
REMARK  247  A    between atoms: _589  and  _590
REMARK  248  A    between atoms: _592  and  _594
REMARK  249  A    between atoms: _594  and  _595
REMARK  250  A    between atoms: _594  and  _597
REMARK  251  A    between atoms: _597  and  _598
REMARK  252  A    between atoms: _598  and  _599
REMARK  253  A    between atoms: _601  and  _603
REMARK  254  A    between atoms: _603  and  _604
REMARK  255  A    between atoms: _603  and  _606
REMARK  256  A    between atoms: _606  and  _607
REMARK  257  A    between atoms: _610  and  _612
REMARK  258  A    between atoms: _612  and  _613
REMARK  259  A    between atoms: _612  and  _615
REMARK  260  A    between atoms: _615  and  _616
REMARK                            x       y       z     vdW  Elec       q    Type
REMARK                         _______ _______ _______ _____ _____    ______ ____
ROOT
ATOM      1  CA  ILE A   1       1.028  22.168  48.934  0.00  0.00    +0.133 C 
ENDROOT
BRANCH   1   2
ATOM      2  N   ILE A   1       0.910  22.311  50.382  0.00  0.00    -0.239 NA
ATOM      3  H   ILE A   1      -0.026  22.234  50.828  0.00  0.00    +0.142 HD
ENDBRANCH   1   2
BRANCH   1   4
ATOM      4  CB  ILE A   1      -0.177  21.394  48.346  0.00  0.00    +0.023 C 
ATOM      5  CG2 ILE A   1       0.047  21.133  46.863  0.00  0.00    +0.002 C 
BRANCH   4   6
ATOM      6  CG1 ILE A   1      -0.350  20.059  49.076  0.00  0.00    +0.002 C 
ATOM      7  CD1 ILE A   1       0.824  19.121  48.917  0.00  0.00    +0.000 C 
ENDBRANCH   4   6
ENDBRANCH   1   4
BRANCH   1   8
ATOM      8  C   ILE A   1       1.113  23.537  48.268  0.00  0.00    +0.224 C 
ATOM      9  O   ILE A   1       1.118  24.565  48.945  0.00  0.00    -0.287 OA
ENDBRANCH   1   8
TORSDOF 4
REMARK  Name = ../refined-set-2016/3dnt/3dnt_pocket.pdb
REMARK  260 active torsions:
REMARK  status: ('A' for Active; 'I' for Inactive)
REMARK    1  A    between atoms: _1  and  _3
REMARK    2  A    between atoms: _3  and  _4
REMARK    3  A    between atoms: _3  and  _6
REMARK    4  A    between atoms: _6  and  _7
REMARK    5  A    between atoms: _12  and  _14
REMARK    6  A    between atoms: _14  and  _15
REMARK    7  A    between atoms: _14  and  _17
REMARK    8  A    between atoms: _17  and  _18
REMARK    9  A    between atoms: _21  and  _23
REMARK   10  A    between atoms: _23  and  _24
REMARK   11  A    between atoms: _23  and  _26
REMARK   12  A    between atoms: _26  and  _27
REMARK   13  A    between atoms: _31  and  _32
REMARK   14  A    between atoms: _37  and  _39
REMARK   15  A    between atoms: _39  and  _40
REMARK   16  A    between atoms: _39  and  _42
REMARK   17  A    between atoms: _42  and  _43
REMARK   18  A    between atoms: _46  and  _48
REMARK   19  A    between atoms: _48  and  _49
REMARK   20  A    between atoms: _48  and  _51
REMARK   21  A    between atoms: _51  and  _52
REMARK   22  A    between atoms: _54  and  _56
REMARK   23  A    between atoms: _56  and  _57
REMARK   24  A    between atoms: _56  and  _59
REMARK   25  A    between atoms: _59  and  _60
REMARK   26  A    between atoms: _62  and  _64
REMARK   27  A    between atoms: _64  and  _65
REMARK   28  A    between atoms: _64  and  _67
REMARK   29  A    between atoms: _70  and  _72
REMARK   30  A    between atoms: _72  and  _73
REMARK   31  A    between atoms: _75  and  _77
REMARK   32  A    between atoms: _77  and  _78
REMARK   33  A    between atoms: _77  and  _80
REMARK   34  A    between atoms: _80  and  _81
REMARK   35  A    between atoms: _83  and  _85
REMARK   36  A    between atoms: _85  and  _86
REMARK   37  A    between atoms: _85  and  _88
REMARK   38  A    between atoms: _91  and  _93
REMARK   39  A    between atoms: _93  and  _94
REMARK   40  A    between atoms: _97  and  _99
REMARK   41  A    between atoms: _99  and  _100
REMARK   42  A    between atoms: _102  and  _104
REMARK   43  A    between atoms: _104  and  _105
REMARK   44  A    between atoms: _108  and  _110
REMARK   45  A    between atoms: _110  and  _111
REMARK   46  A    between atoms: _110  and  _113
REMARK   47  A    between atoms: _113  and  _114
REMARK   48  A    between atoms: _114  and  _115
REMARK   49  A    between atoms: _120  and  _122
REMARK   50  A    between atoms: _122  and  _123
REMARK   51  A    between atoms: _122  and  _125
REMARK   52  A    between atoms: _125  and  _126
REMARK   53  A    between atoms: _126  and  _127
REMARK   54  A    between atoms: _130  and  _132
REMARK   55  A    between atoms: _132  and  _133
REMARK   56  A    between atoms: _132  and  _135
REMARK   57  A    between atoms: _135  and  _136
REMARK   58  A    between atoms: _136  and  _137
REMARK   59  A    between atoms: _137  and  _138
REMARK   60  A    between atoms: _138  and  _139
REMARK   61  A    between atoms: _143  and  _145
REMARK   62  A    between atoms: _145  and  _146
REMARK   63  A    between atoms: _145  and  _148
REMARK   64  A    between atoms: _148  and  _149
REMARK   65  A    between atoms: _152  and  _154
REMARK   66  A    between atoms: _154  and  _155
REMARK   67  A    between atoms: _154  and  _157
REMARK   68  A    between atoms: _157  and  _158
REMARK   69  A    between atoms: _163  and  _165
REMARK   70  A    between atoms: _165  and  _166
REMARK   71  A    between atoms: _165  and  _168
REMARK   72  A    between atoms: _168  and  _169
REMARK   73  A    between atoms: _172  and  _174
REMARK   74  A    between atoms: _174  and  _175
REMARK   75  A    between atoms: _174  and  _177
REMARK   76  A    between atoms: _177  and  _178
REMARK   77  A    between atoms: _181  and  _183
REMARK   78  A    between atoms: _183  and  _184
REMARK   79  A    between atoms: _183  and  _186
REMARK   80  A    between atoms: _186  and  _187
REMARK   81  A    between atoms: _187  and  _188
REMARK   82  A    between atoms: _188  and  _189
REMARK   83  A    between atoms: _189  and  _190
REMARK   84  A    between atoms: _194  and  _196
REMARK   85  A    between atoms: _196  and  _197
REMARK   86  A    between atoms: _196  and  _199
REMARK   87  A    between atoms: _199  and  _200
REMARK   88  A    between atoms: _203  and  _205
REMARK   89  A    between atoms: _205  and  _206
REMARK   90  A    between atoms: _205  and  _208
REMARK   91  A    between atoms: _208  and  _209
REMARK   92  A    between atoms: _212  and  _214
REMARK   93  A    between atoms: _214  and  _215
REMARK   94  A    between atoms: _214  and  _217
REMARK   95  A    between atoms: _217  and  _218
REMARK   96  A    between atoms: _220  and  _222
REMARK   97  A    between atoms: _222  and  _223
REMARK   98  A    between atoms: _222  and  _225
REMARK   99  A    between atoms: _225  and  _226
REMARK  100  A    between atoms: _226  and  _227
REMARK  101  A    between atoms: _230  and  _232
REMARK  102  A    between atoms: _232  and  _233
REMARK  103  A    between atoms: _232  and  _235
REMARK  104  A    between atoms: _235  and  _236
REMARK  105  A    between atoms: _239  and  _241
REMARK  106  A    between atoms: _241  and  _242
REMARK  107  A    between atoms: _241  and  _244
REMARK  108  A    between atoms: _248  and  _249
REMARK  109  A    between atoms: _254  and  _256
REMARK  110  A    between atoms: _256  and  _257
REMARK  111  A    between atoms: _256  and  _259
REMARK  112  A    between atoms: _259  and  _260
REMARK  113  A    between atoms: _263  and  _265
REMARK  114  A    between atoms: _265  and  _266
REMARK  115  A    between atoms: _269  and  _271
REMARK  116  A    between atoms: _271  and  _272
REMARK  117  A    between atoms: _271  and  _274
REMARK  118  A    between atoms: _274  and  _275
REMARK  119  A    between atoms: _278  and  _280
REMARK  120  A    between atoms: _280  and  _281
REMARK  121  A    between atoms: _284  and  _286
REMARK  122  A    between atoms: _286  and  _287
REMARK  123  A    between atoms: _286  and  _289
REMARK  124  A    between atoms: _292  and  _294
REMARK  125  A    between atoms: _294  and  _295
REMARK  126  A    between atoms: _294  and  _297
REMARK  127  A    between atoms: _297  and  _298
REMARK  128  A    between atoms: _298  and  _299
REMARK  129  A    between atoms: _302  and  _304
REMARK  130  A    between atoms: _304  and  _305
REMARK  131  A    between atoms: _304  and  _307
REMARK  132  A    between atoms: _307  and  _308
REMARK  133  A    between atoms: _308  and  _309
REMARK  134  A    between atoms: _309  and  _310
REMARK  135  A    between atoms: _319  and  _321
REMARK  136  A    between atoms: _321  and  _322
REMARK  137  A    between atoms: _321  and  _324
REMARK  138  A    between atoms: _324  and  _325
REMARK  139  A    between atoms: _331  and  _333
REMARK  140  A    between atoms: _333  and  _334
REMARK  141  A    between atoms: _333  and  _336
REMARK  142  A    between atoms: _336  and  _337
REMARK  143  A    between atoms: _340  and  _342
REMARK  144  A    between atoms: _342  and  _343
REMARK  145  A    between atoms: _342  and  _345
REMARK  146  A    between atoms: _345  and  _346
REMARK  147  A    between atoms: _346  and  _347
REMARK  148  A    between atoms: _347  and  _348
REMARK  149  A    between atoms: _357  and  _359
REMARK  150  A    between atoms: _359  and  _360
REMARK  151  A    between atoms: _359  and  _362
REMARK  152  A    between atoms: _362  and  _363
REMARK  153  A    between atoms: _366  and  _368
REMARK  154  A    between atoms: _368  and  _369
REMARK  155  A    between atoms: _368  and  _371
REMARK  156  A    between atoms: _371  and  _372
REMARK  157  A    between atoms: _372  and  _373
REMARK  158  A    between atoms: _378  and  _380
REMARK  159  A    between atoms: _380  and  _381
REMARK  160  A    between atoms: _380  and  _383
REMARK  161  A    between atoms: _383  and  _384
REMARK  162  A    between atoms: _384  and  _385
REMARK  163  A    between atoms: _388  and  _390
REMARK  164  A    between atoms: _390  and  _391
REMARK  165  A    between atoms: _390  and  _393
REMARK  166  A    between atoms: _393  and  _394
REMARK  167  A    between atoms: _397  and  _399
REMARK  168  A    between atoms: _399  and  _400
REMARK  169  A    between atoms: _399  and  _402
REMARK  170  A    between atoms: _402  and  _403
REMARK  171  A    between atoms: _403  and  _404
REMARK  172  A    between atoms: _406  and  _408
REMARK  173  A    between atoms: _408  and  _409
REMARK  174  A    between atoms: _408  and  _411
REMARK  175  A    between atoms: _413  and  _415
REMARK  176  A    between atoms: _415  and  _416
REMARK  177  A    between atoms: _415  and  _418
REMARK  178  A    between atoms: _418  and  _419
REMARK  179  A    between atoms: _419  and  _420
REMARK  180  A    between atoms: _425  and  _427
REMARK  181  A    between atoms: _427  and  _428
REMARK  182  A    between atoms: _427  and  _430
REMARK  183  A    between atoms: _430  and  _431
REMARK  184  A    between atoms: _431  and  _432
REMARK  185  A    between atoms: _432  and  _433
REMARK  186  A    between atoms: _433  and  _434
REMARK  187  A    between atoms: _438  and  _440
REMARK  188  A    between atoms: _440  and  _441
REMARK  189  A    between atoms: _440  and  _443
REMARK  190  A    between atoms: _443  and  _444
REMARK  191  A    between atoms: _449  and  _450
REMARK  192  A    between atoms: _452  and  _454
REMARK  193  A    between atoms: _454  and  _455
REMARK  194  A    between atoms: _454  and  _457
REMARK  195  A    between atoms: _457  and  _458
REMARK  196  A    between atoms: _458  and  _459
REMARK  197  A    between atoms: _464  and  _466
REMARK  198  A    between atoms: _466  and  _467
REMARK  199  A    between atoms: _469  and  _471
REMARK  200  A    between atoms: _471  and  _472
REMARK  201  A    between atoms: _471  and  _474
REMARK  202  A    between atoms: _474  and  _475
REMARK  203  A    between atoms: _480  and  _482
REMARK  204  A    between atoms: _482  and  _483
REMARK  205  A    between atoms: _486  and  _488
REMARK  206  A    between atoms: _488  and  _489
REMARK  207  A    between atoms: _488  and  _491
REMARK  208  A    between atoms: _491  and  _492
REMARK  209  A    between atoms: _492  and  _493
REMARK  210  A    between atoms: _493  and  _494
REMARK  211  A    between atoms: _494  and  _495
REMARK  212  A    between atoms: _499  and  _501
REMARK  213  A    between atoms: _501  and  _502
REMARK  214  A    between atoms: _501  and  _504
REMARK  215  A    between atoms: _504  and  _505
REMARK  216  A    between atoms: _505  and  _506
REMARK  217  A    between atoms: _505  and  _507
REMARK  218  A    between atoms: _506  and  MG_619
REMARK  219  A    between atoms: _510  and  _512
REMARK  220  A    between atoms: _512  and  _513
REMARK  221  A    between atoms: _512  and  _515
REMARK  222  A    between atoms: _515  and  _516
REMARK  223  A    between atoms: _522  and  _524
REMARK  224  A    between atoms: _524  and  _525
REMARK  225  A    between atoms: _524  and  _527
REMARK  226  A    between atoms: _527  and  _528
REMARK  227  A    between atoms: _530  and  _532
REMARK  228  A    between atoms: _532  and  _533
REMARK  229  A    between atoms: _532  and  _535
REMARK  230  A    between atoms: _538  and  _540
REMARK  231  A    between atoms: _540  and  _541
REMARK  232  A    between atoms: _540  and  _543
REMARK  233  A    between atoms: _543  and  _544
REMARK  234  A    between atoms: _550  and  _552
REMARK  235  A    between atoms: _552  and  _553
REMARK  236  A    between atoms: _552  and  _555
REMARK  237  A    between atoms: _555  and  _556
REMARK  238  A    between atoms: _560  and  _561
REMARK  239  A    between atoms: _566  and  _568
REMARK  240  A    between atoms: _568  and  _569
REMARK  241  A    between atoms: _568  and  _571
REMARK  242  A    between atoms: _571  and  _572
REMARK  243  A    between atoms: _578  and  _580
REMARK  244  A    between atoms: _580  and  _581
REMARK  245  A    between atoms: _580  and  _583
REMARK  246  A    between atoms: _583  and  _584
REMARK  247  A    between atoms: _589  and  _590
REMARK  248  A    between atoms: _592  and  _594
REMARK  249  A    between atoms: _594  and  _595
REMARK  250  A    between atoms: _594  and  _597
REMARK  251  A    between atoms: _597  and  _598
REMARK  252  A    between atoms: _598  and  _599
REMARK  253  A    between atoms: _601  and  _603
REMARK  254  A    between atoms: _603  and  _604
REMARK  255  A    between atoms: _603  and  _606
REMARK  256  A    between atoms: _606  and  _607
REMARK  257  A    between atoms: _610  and  _612
REMARK  258  A    between atoms: _612  and  _613
REMARK  259  A    between atoms: _612  and  _615
REMARK  260  A    between atoms: _615  and  _616
REMARK                            x       y       z     vdW  Elec       q    Type
REMARK                         _______ _______ _______ _____ _____    ______ ____
ROOT
ATOM      1  CA  SER A   1      -4.161  22.105  53.987  0.00  0.00    +0.163 C 
ENDROOT
BRANCH   1   2
ATOM      2  N   SER A   1      -3.696  23.471  53.776  0.00  0.00    -0.237 NA
ATOM      3  H   SER A   1      -3.015  23.666  53.015  0.00  0.00    +0.142 HD
ENDBRANCH   1   2
BRANCH   1   4
ATOM      4  CB  SER A   1      -3.781  21.581  55.366  0.00  0.00    +0.227 C 
ATOM      5  OG  SER A   1      -4.521  20.797  55.964  0.00  0.00    -0.287 OA
ENDBRANCH   1   4
BRANCH   1   6
ATOM      6  C   SER A   1      -3.577  21.174  52.922  0.00  0.00    +0.162 C 
BRANCH   6   7
ATOM      7  O   SER A   1      -4.080  21.501  51.642  0.00  0.00    -0.380 OA
ATOM      8  H   SER A   1      -3.835  22.434  51.421  0.00  0.00    +0.211 HD
ENDBRANCH   6   7
ENDBRANCH   1   6
TORSDOF 4
REMARK  Name = ../refined-set-2016/3dnt/3dnt_pocket.pdb
REMARK  260 active torsions:
REMARK  status: ('A' for Active; 'I' for Inactive)
REMARK    1  A    between atoms: _1  and  _3
REMARK    2  A    between atoms: _3  and  _4
REMARK    3  A    between atoms: _3  and  _6
REMARK    4  A    between atoms: _6  and  _7
REMARK    5  A    between atoms: _12  and  _14
REMARK    6  A    between atoms: _14  and  _15
REMARK    7  A    between atoms: _14  and  _17
REMARK    8  A    between atoms: _17  and  _18
REMARK    9  A    between atoms: _21  and  _23
REMARK   10  A    between atoms: _23  and  _24
REMARK   11  A    between atoms: _23  and  _26
REMARK   12  A    between atoms: _26  and  _27
REMARK   13  A    between atoms: _31  and  _32
REMARK   14  A    between atoms: _37  and  _39
REMARK   15  A    between atoms: _39  and  _40
REMARK   16  A    between atoms: _39  and  _42
REMARK   17  A    between atoms: _42  and  _43
REMARK   18  A    between atoms: _46  and  _48
REMARK   19  A    between atoms: _48  and  _49
REMARK   20  A    between atoms: _48  and  _51
REMARK   21  A    between atoms: _51  and  _52
REMARK   22  A    between atoms: _54  and  _56
REMARK   23  A    between atoms: _56  and  _57
REMARK   24  A    between atoms: _56  and  _59
REMARK   25  A    between atoms: _59  and  _60
REMARK   26  A    between atoms: _62  and  _64
REMARK   27  A    between atoms: _64  and  _65
REMARK   28  A    between atoms: _64  and  _67
REMARK   29  A    between atoms: _70  and  _72
REMARK   30  A    between atoms: _72  and  _73
REMARK   31  A    between atoms: _75  and  _77
REMARK   32  A    between atoms: _77  and  _78
REMARK   33  A    between atoms: _77  and  _80
REMARK   34  A    between atoms: _80  and  _81
REMARK   35  A    between atoms: _83  and  _85
REMARK   36  A    between atoms: _85  and  _86
REMARK   37  A    between atoms: _85  and  _88
REMARK   38  A    between atoms: _91  and  _93
REMARK   39  A    between atoms: _93  and  _94
REMARK   40  A    between atoms: _97  and  _99
REMARK   41  A    between atoms: _99  and  _100
REMARK   42  A    between atoms: _102  and  _104
REMARK   43  A    between atoms: _104  and  _105
REMARK   44  A    between atoms: _108  and  _110
REMARK   45  A    between atoms: _110  and  _111
REMARK   46  A    between atoms: _110  and  _113
REMARK   47  A    between atoms: _113  and  _114
REMARK   48  A    between atoms: _114  and  _115
REMARK   49  A    between atoms: _120  and  _122
REMARK   50  A    between atoms: _122  and  _123
REMARK   51  A    between atoms: _122  and  _125
REMARK   52  A    between atoms: _125  and  _126
REMARK   53  A    between atoms: _126  and  _127
REMARK   54  A    between atoms: _130  and  _132
REMARK   55  A    between atoms: _132  and  _133
REMARK   56  A    between atoms: _132  and  _135
REMARK   57  A    between atoms: _135  and  _136
REMARK   58  A    between atoms: _136  and  _137
REMARK   59  A    between atoms: _137  and  _138
REMARK   60  A    between atoms: _138  and  _139
REMARK   61  A    between atoms: _143  and  _145
REMARK   62  A    between atoms: _145  and  _146
REMARK   63  A    between atoms: _145  and  _148
REMARK   64  A    between atoms: _148  and  _149
REMARK   65  A    between atoms: _152  and  _154
REMARK   66  A    between atoms: _154  and  _155
REMARK   67  A    between atoms: _154  and  _157
REMARK   68  A    between atoms: _157  and  _158
REMARK   69  A    between atoms: _163  and  _165
REMARK   70  A    between atoms: _165  and  _166
REMARK   71  A    between atoms: _165  and  _168
REMARK   72  A    between atoms: _168  and  _169
REMARK   73  A    between atoms: _172  and  _174
REMARK   74  A    between atoms: _174  and  _175
REMARK   75  A    between atoms: _174  and  _177
REMARK   76  A    between atoms: _177  and  _178
REMARK   77  A    between atoms: _181  and  _183
REMARK   78  A    between atoms: _183  and  _184
REMARK   79  A    between atoms: _183  and  _186
REMARK   80  A    between atoms: _186  and  _187
REMARK   81  A    between atoms: _187  and  _188
REMARK   82  A    between atoms: _188  and  _189
REMARK   83  A    between atoms: _189  and  _190
REMARK   84  A    between atoms: _194  and  _196
REMARK   85  A    between atoms: _196  and  _197
REMARK   86  A    between atoms: _196  and  _199
REMARK   87  A    between atoms: _199  and  _200
REMARK   88  A    between atoms: _203  and  _205
REMARK   89  A    between atoms: _205  and  _206
REMARK   90  A    between atoms: _205  and  _208
REMARK   91  A    between atoms: _208  and  _209
REMARK   92  A    between atoms: _212  and  _214
REMARK   93  A    between atoms: _214  and  _215
REMARK   94  A    between atoms: _214  and  _217
REMARK   95  A    between atoms: _217  and  _218
REMARK   96  A    between atoms: _220  and  _222
REMARK   97  A    between atoms: _222  and  _223
REMARK   98  A    between atoms: _222  and  _225
REMARK   99  A    between atoms: _225  and  _226
REMARK  100  A    between atoms: _226  and  _227
REMARK  101  A    between atoms: _230  and  _232
REMARK  102  A    between atoms: _232  and  _233
REMARK  103  A    between atoms: _232  and  _235
REMARK  104  A    between atoms: _235  and  _236
REMARK  105  A    between atoms: _239  and  _241
REMARK  106  A    between atoms: _241  and  _242
REMARK  107  A    between atoms: _241  and  _244
REMARK  108  A    between atoms: _248  and  _249
REMARK  109  A    between atoms: _254  and  _256
REMARK  110  A    between atoms: _256  and  _257
REMARK  111  A    between atoms: _256  and  _259
REMARK  112  A    between atoms: _259  and  _260
REMARK  113  A    between atoms: _263  and  _265
REMARK  114  A    between atoms: _265  and  _266
REMARK  115  A    between atoms: _269  and  _271
REMARK  116  A    between atoms: _271  and  _272
REMARK  117  A    between atoms: _271  and  _274
REMARK  118  A    between atoms: _274  and  _275
REMARK  119  A    between atoms: _278  and  _280
REMARK  120  A    between atoms: _280  and  _281
REMARK  121  A    between atoms: _284  and  _286
REMARK  122  A    between atoms: _286  and  _287
REMARK  123  A    between atoms: _286  and  _289
REMARK  124  A    between atoms: _292  and  _294
REMARK  125  A    between atoms: _294  and  _295
REMARK  126  A    between atoms: _294  and  _297
REMARK  127  A    between atoms: _297  and  _298
REMARK  128  A    between atoms: _298  and  _299
REMARK  129  A    between atoms: _302  and  _304
REMARK  130  A    between atoms: _304  and  _305
REMARK  131  A    between atoms: _304  and  _307
REMARK  132  A    between atoms: _307  and  _308
REMARK  133  A    between atoms: _308  and  _309
REMARK  134  A    between atoms: _309  and  _310
REMARK  135  A    between atoms: _319  and  _321
REMARK  136  A    between atoms: _321  and  _322
REMARK  137  A    between atoms: _321  and  _324
REMARK  138  A    between atoms: _324  and  _325
REMARK  139  A    between atoms: _331  and  _333
REMARK  140  A    between atoms: _333  and  _334
REMARK  141  A    between atoms: _333  and  _336
REMARK  142  A    between atoms: _336  and  _337
REMARK  143  A    between atoms: _340  and  _342
REMARK  144  A    between atoms: _342  and  _343
REMARK  145  A    between atoms: _342  and  _345
REMARK  146  A    between atoms: _345  and  _346
REMARK  147  A    between atoms: _346  and  _347
REMARK  148  A    between atoms: _347  and  _348
REMARK  149  A    between atoms: _357  and  _359
REMARK  150  A    between atoms: _359  and  _360
REMARK  151  A    between atoms: _359  and  _362
REMARK  152  A    between atoms: _362  and  _363
REMARK  153  A    between atoms: _366  and  _368
REMARK  154  A    between atoms: _368  and  _369
REMARK  155  A    between atoms: _368  and  _371
REMARK  156  A    between atoms: _371  and  _372
REMARK  157  A    between atoms: _372  and  _373
REMARK  158  A    between atoms: _378  and  _380
REMARK  159  A    between atoms: _380  and  _381
REMARK  160  A    between atoms: _380  and  _383
REMARK  161  A    between atoms: _383  and  _384
REMARK  162  A    between atoms: _384  and  _385
REMARK  163  A    between atoms: _388  and  _390
REMARK  164  A    between atoms: _390  and  _391
REMARK  165  A    between atoms: _390  and  _393
REMARK  166  A    between atoms: _393  and  _394
REMARK  167  A    between atoms: _397  and  _399
REMARK  168  A    between atoms: _399  and  _400
REMARK  169  A    between atoms: _399  and  _402
REMARK  170  A    between atoms: _402  and  _403
REMARK  171  A    between atoms: _403  and  _404
REMARK  172  A    between atoms: _406  and  _408
REMARK  173  A    between atoms: _408  and  _409
REMARK  174  A    between atoms: _408  and  _411
REMARK  175  A    between atoms: _413  and  _415
REMARK  176  A    between atoms: _415  and  _416
REMARK  177  A    between atoms: _415  and  _418
REMARK  178  A    between atoms: _418  and  _419
REMARK  179  A    between atoms: _419  and  _420
REMARK  180  A    between atoms: _425  and  _427
REMARK  181  A    between atoms: _427  and  _428
REMARK  182  A    between atoms: _427  and  _430
REMARK  183  A    between atoms: _430  and  _431
REMARK  184  A    between atoms: _431  and  _432
REMARK  185  A    between atoms: _432  and  _433
REMARK  186  A    between atoms: _433  and  _434
REMARK  187  A    between atoms: _438  and  _440
REMARK  188  A    between atoms: _440  and  _441
REMARK  189  A    between atoms: _440  and  _443
REMARK  190  A    between atoms: _443  and  _444
REMARK  191  A    between atoms: _449  and  _450
REMARK  192  A    between atoms: _452  and  _454
REMARK  193  A    between atoms: _454  and  _455
REMARK  194  A    between atoms: _454  and  _457
REMARK  195  A    between atoms: _457  and  _458
REMARK  196  A    between atoms: _458  and  _459
REMARK  197  A    between atoms: _464  and  _466
REMARK  198  A    between atoms: _466  and  _467
REMARK  199  A    between atoms: _469  and  _471
REMARK  200  A    between atoms: _471  and  _472
REMARK  201  A    between atoms: _471  and  _474
REMARK  202  A    between atoms: _474  and  _475
REMARK  203  A    between atoms: _480  and  _482
REMARK  204  A    between atoms: _482  and  _483
REMARK  205  A    between atoms: _486  and  _488
REMARK  206  A    between atoms: _488  and  _489
REMARK  207  A    between atoms: _488  and  _491
REMARK  208  A    between atoms: _491  and  _492
REMARK  209  A    between atoms: _492  and  _493
REMARK  210  A    between atoms: _493  and  _494
REMARK  211  A    between atoms: _494  and  _495
REMARK  212  A    between atoms: _499  and  _501
REMARK  213  A    between atoms: _501  and  _502
REMARK  214  A    between atoms: _501  and  _504
REMARK  215  A    between atoms: _504  and  _505
REMARK  216  A    between atoms: _505  and  _506
REMARK  217  A    between atoms: _505  and  _507
REMARK  218  A    between atoms: _506  and  MG_619
REMARK  219  A    between atoms: _510  and  _512
REMARK  220  A    between atoms: _512  and  _513
REMARK  221  A    between atoms: _512  and  _515
REMARK  222  A    between atoms: _515  and  _516
REMARK  223  A    between atoms: _522  and  _524
REMARK  224  A    between atoms: _524  and  _525
REMARK  225  A    between atoms: _524  and  _527
REMARK  226  A    between atoms: _527  and  _528
REMARK  227  A    between atoms: _530  and  _532
REMARK  228  A    between atoms: _532  and  _533
REMARK  229  A    between atoms: _532  and  _535
REMARK  230  A    between atoms: _538  and  _540
REMARK  231  A    between atoms: _540  and  _541
REMARK  232  A    between atoms: _540  and  _543
REMARK  233  A    between atoms: _543  and  _544
REMARK  234  A    between atoms: _550  and  _552
REMARK  235  A    between atoms: _552  and  _553
REMARK  236  A    between atoms: _552  and  _555
REMARK  237  A    between atoms: _555  and  _556
REMARK  238  A    between atoms: _560  and  _561
REMARK  239  A    between atoms: _566  and  _568
REMARK  240  A    between atoms: _568  and  _569
REMARK  241  A    between atoms: _568  and  _571
REMARK  242  A    between atoms: _571  and  _572
REMARK  243  A    between atoms: _578  and  _580
REMARK  244  A    between atoms: _580  and  _581
REMARK  245  A    between atoms: _580  and  _583
REMARK  246  A    between atoms: _583  and  _584
REMARK  247  A    between atoms: _589  and  _590
REMARK  248  A    between atoms: _592  and  _594
REMARK  249  A    between atoms: _594  and  _595
REMARK  250  A    between atoms: _594  and  _597
REMARK  251  A    between atoms: _597  and  _598
REMARK  252  A    between atoms: _598  and  _599
REMARK  253  A    between atoms: _601  and  _603
REMARK  254  A    between atoms: _603  and  _604
REMARK  255  A    between atoms: _603  and  _606
REMARK  256  A    between atoms: _606  and  _607
REMARK  257  A    between atoms: _610  and  _612
REMARK  258  A    between atoms: _612  and  _613
REMARK  259  A    between atoms: _612  and  _615
REMARK  260  A    between atoms: _615  and  _616
REMARK                            x       y       z     vdW  Elec       q    Type
REMARK                         _______ _______ _______ _____ _____    ______ ____
ROOT
ATOM      1  CA  GLU A   1      -6.777  18.617  58.074  0.00  0.00    +0.134 C 
ENDROOT
BRANCH   1   2
ATOM      2  N   GLU A   1      -6.741  20.004  57.629  0.00  0.00    -0.239 NA
ATOM      3  H   GLU A   1      -5.936  20.347  57.067  0.00  0.00    +0.142 HD
ENDBRANCH   1   2
BRANCH   1   4
ATOM      4  C   GLU A   1      -6.705  18.515  59.598  0.00  0.00    +0.224 C 
ATOM      5  O   GLU A   1      -7.383  17.695  60.198  0.00  0.00    -0.287 OA
ENDBRANCH   1   4
BRANCH   1   6
ATOM      6  CB  GLU A   1      -5.651  17.823  57.410  0.00  0.00    +0.037 C 
BRANCH   6   7
ATOM      7  CG  GLU A   1      -5.680  16.342  57.780  0.00  0.00    +0.116 C 
BRANCH   7   8
ATOM      8  CD  GLU A   1      -4.811  15.495  56.876  0.00  0.00    +0.365 C 
ATOM      9  OE2 GLU A   1      -4.732  14.270  57.113  0.00  0.00    -0.246 OA
ATOM     10  OE1 GLU A   1      -4.211  16.047  55.932  0.00  0.00    -0.246 OA
ENDBRANCH   7   8
ENDBRANCH   6   7
ENDBRANCH   1   6
TORSDOF 5
REMARK  Name = ../refined-set-2016/3dnt/3dnt_pocket.pdb
REMARK  260 active torsions:
REMARK  status: ('A' for Active; 'I' for Inactive)
REMARK    1  A    between atoms: _1  and  _3
REMARK    2  A    between atoms: _3  and  _4
REMARK    3  A    between atoms: _3  and  _6
REMARK    4  A    between atoms: _6  and  _7
REMARK    5  A    between atoms: _12  and  _14
REMARK    6  A    between atoms: _14  and  _15
REMARK    7  A    between atoms: _14  and  _17
REMARK    8  A    between atoms: _17  and  _18
REMARK    9  A    between atoms: _21  and  _23
REMARK   10  A    between atoms: _23  and  _24
REMARK   11  A    between atoms: _23  and  _26
REMARK   12  A    between atoms: _26  and  _27
REMARK   13  A    between atoms: _31  and  _32
REMARK   14  A    between atoms: _37  and  _39
REMARK   15  A    between atoms: _39  and  _40
REMARK   16  A    between atoms: _39  and  _42
REMARK   17  A    between atoms: _42  and  _43
REMARK   18  A    between atoms: _46  and  _48
REMARK   19  A    between atoms: _48  and  _49
REMARK   20  A    between atoms: _48  and  _51
REMARK   21  A    between atoms: _51  and  _52
REMARK   22  A    between atoms: _54  and  _56
REMARK   23  A    between atoms: _56  and  _57
REMARK   24  A    between atoms: _56  and  _59
REMARK   25  A    between atoms: _59  and  _60
REMARK   26  A    between atoms: _62  and  _64
REMARK   27  A    between atoms: _64  and  _65
REMARK   28  A    between atoms: _64  and  _67
REMARK   29  A    between atoms: _70  and  _72
REMARK   30  A    between atoms: _72  and  _73
REMARK   31  A    between atoms: _75  and  _77
REMARK   32  A    between atoms: _77  and  _78
REMARK   33  A    between atoms: _77  and  _80
REMARK   34  A    between atoms: _80  and  _81
REMARK   35  A    between atoms: _83  and  _85
REMARK   36  A    between atoms: _85  and  _86
REMARK   37  A    between atoms: _85  and  _88
REMARK   38  A    between atoms: _91  and  _93
REMARK   39  A    between atoms: _93  and  _94
REMARK   40  A    between atoms: _97  and  _99
REMARK   41  A    between atoms: _99  and  _100
REMARK   42  A    between atoms: _102  and  _104
REMARK   43  A    between atoms: _104  and  _105
REMARK   44  A    between atoms: _108  and  _110
REMARK   45  A    between atoms: _110  and  _111
REMARK   46  A    between atoms: _110  and  _113
REMARK   47  A    between atoms: _113  and  _114
REMARK   48  A    between atoms: _114  and  _115
REMARK   49  A    between atoms: _120  and  _122
REMARK   50  A    between atoms: _122  and  _123
REMARK   51  A    between atoms: _122  and  _125
REMARK   52  A    between atoms: _125  and  _126
REMARK   53  A    between atoms: _126  and  _127
REMARK   54  A    between atoms: _130  and  _132
REMARK   55  A    between atoms: _132  and  _133
REMARK   56  A    between atoms: _132  and  _135
REMARK   57  A    between atoms: _135  and  _136
REMARK   58  A    between atoms: _136  and  _137
REMARK   59  A    between atoms: _137  and  _138
REMARK   60  A    between atoms: _138  and  _139
REMARK   61  A    between atoms: _143  and  _145
REMARK   62  A    between atoms: _145  and  _146
REMARK   63  A    between atoms: _145  and  _148
REMARK   64  A    between atoms: _148  and  _149
REMARK   65  A    between atoms: _152  and  _154
REMARK   66  A    between atoms: _154  and  _155
REMARK   67  A    between atoms: _154  and  _157
REMARK   68  A    between atoms: _157  and  _158
REMARK   69  A    between atoms: _163  and  _165
REMARK   70  A    between atoms: _165  and  _166
REMARK   71  A    between atoms: _165  and  _168
REMARK   72  A    between atoms: _168  and  _169
REMARK   73  A    between atoms: _172  and  _174
REMARK   74  A    between atoms: _174  and  _175
REMARK   75  A    between atoms: _174  and  _177
REMARK   76  A    between atoms: _177  and  _178
REMARK   77  A    between atoms: _181  and  _183
REMARK   78  A    between atoms: _183  and  _184
REMARK   79  A    between atoms: _183  and  _186
REMARK   80  A    between atoms: _186  and  _187
REMARK   81  A    between atoms: _187  and  _188
REMARK   82  A    between atoms: _188  and  _189
REMARK   83  A    between atoms: _189  and  _190
REMARK   84  A    between atoms: _194  and  _196
REMARK   85  A    between atoms: _196  and  _197
REMARK   86  A    between atoms: _196  and  _199
REMARK   87  A    between atoms: _199  and  _200
REMARK   88  A    between atoms: _203  and  _205
REMARK   89  A    between atoms: _205  and  _206
REMARK   90  A    between atoms: _205  and  _208
REMARK   91  A    between atoms: _208  and  _209
REMARK   92  A    between atoms: _212  and  _214
REMARK   93  A    between atoms: _214  and  _215
REMARK   94  A    between atoms: _214  and  _217
REMARK   95  A    between atoms: _217  and  _218
REMARK   96  A    between atoms: _220  and  _222
REMARK   97  A    between atoms: _222  and  _223
REMARK   98  A    between atoms: _222  and  _225
REMARK   99  A    between atoms: _225  and  _226
REMARK  100  A    between atoms: _226  and  _227
REMARK  101  A    between atoms: _230  and  _232
REMARK  102  A    between atoms: _232  and  _233
REMARK  103  A    between atoms: _232  and  _235
REMARK  104  A    between atoms: _235  and  _236
REMARK  105  A    between atoms: _239  and  _241
REMARK  106  A    between atoms: _241  and  _242
REMARK  107  A    between atoms: _241  and  _244
REMARK  108  A    between atoms: _248  and  _249
REMARK  109  A    between atoms: _254  and  _256
REMARK  110  A    between atoms: _256  and  _257
REMARK  111  A    between atoms: _256  and  _259
REMARK  112  A    between atoms: _259  and  _260
REMARK  113  A    between atoms: _263  and  _265
REMARK  114  A    between atoms: _265  and  _266
REMARK  115  A    between atoms: _269  and  _271
REMARK  116  A    between atoms: _271  and  _272
REMARK  117  A    between atoms: _271  and  _274
REMARK  118  A    between atoms: _274  and  _275
REMARK  119  A    between atoms: _278  and  _280
REMARK  120  A    between atoms: _280  and  _281
REMARK  121  A    between atoms: _284  and  _286
REMARK  122  A    between atoms: _286  and  _287
REMARK  123  A    between atoms: _286  and  _289
REMARK  124  A    between atoms: _292  and  _294
REMARK  125  A    between atoms: _294  and  _295
REMARK  126  A    between atoms: _294  and  _297
REMARK  127  A    between atoms: _297  and  _298
REMARK  128  A    between atoms: _298  and  _299
REMARK  129  A    between atoms: _302  and  _304
REMARK  130  A    between atoms: _304  and  _305
REMARK  131  A    between atoms: _304  and  _307
REMARK  132  A    between atoms: _307  and  _308
REMARK  133  A    between atoms: _308  and  _309
REMARK  134  A    between atoms: _309  and  _310
REMARK  135  A    between atoms: _319  and  _321
REMARK  136  A    between atoms: _321  and  _322
REMARK  137  A    between atoms: _321  and  _324
REMARK  138  A    between atoms: _324  and  _325
REMARK  139  A    between atoms: _331  and  _333
REMARK  140  A    between atoms: _333  and  _334
REMARK  141  A    between atoms: _333  and  _336
REMARK  142  A    between atoms: _336  and  _337
REMARK  143  A    between atoms: _340  and  _342
REMARK  144  A    between atoms: _342  and  _343
REMARK  145  A    between atoms: _342  and  _345
REMARK  146  A    between atoms: _345  and  _346
REMARK  147  A    between atoms: _346  and  _347
REMARK  148  A    between atoms: _347  and  _348
REMARK  149  A    between atoms: _357  and  _359
REMARK  150  A    between atoms: _359  and  _360
REMARK  151  A    between atoms: _359  and  _362
REMARK  152  A    between atoms: _362  and  _363
REMARK  153  A    between atoms: _366  and  _368
REMARK  154  A    between atoms: _368  and  _369
REMARK  155  A    between atoms: _368  and  _371
REMARK  156  A    between atoms: _371  and  _372
REMARK  157  A    between atoms: _372  and  _373
REMARK  158  A    between atoms: _378  and  _380
REMARK  159  A    between atoms: _380  and  _381
REMARK  160  A    between atoms: _380  and  _383
REMARK  161  A    between atoms: _383  and  _384
REMARK  162  A    between atoms: _384  and  _385
REMARK  163  A    between atoms: _388  and  _390
REMARK  164  A    between atoms: _390  and  _391
REMARK  165  A    between atoms: _390  and  _393
REMARK  166  A    between atoms: _393  and  _394
REMARK  167  A    between atoms: _397  and  _399
REMARK  168  A    between atoms: _399  and  _400
REMARK  169  A    between atoms: _399  and  _402
REMARK  170  A    between atoms: _402  and  _403
REMARK  171  A    between atoms: _403  and  _404
REMARK  172  A    between atoms: _406  and  _408
REMARK  173  A    between atoms: _408  and  _409
REMARK  174  A    between atoms: _408  and  _411
REMARK  175  A    between atoms: _413  and  _415
REMARK  176  A    between atoms: _415  and  _416
REMARK  177  A    between atoms: _415  and  _418
REMARK  178  A    between atoms: _418  and  _419
REMARK  179  A    between atoms: _419  and  _420
REMARK  180  A    between atoms: _425  and  _427
REMARK  181  A    between atoms: _427  and  _428
REMARK  182  A    between atoms: _427  and  _430
REMARK  183  A    between atoms: _430  and  _431
REMARK  184  A    between atoms: _431  and  _432
REMARK  185  A    between atoms: _432  and  _433
REMARK  186  A    between atoms: _433  and  _434
REMARK  187  A    between atoms: _438  and  _440
REMARK  188  A    between atoms: _440  and  _441
REMARK  189  A    between atoms: _440  and  _443
REMARK  190  A    between atoms: _443  and  _444
REMARK  191  A    between atoms: _449  and  _450
REMARK  192  A    between atoms: _452  and  _454
REMARK  193  A    between atoms: _454  and  _455
REMARK  194  A    between atoms: _454  and  _457
REMARK  195  A    between atoms: _457  and  _458
REMARK  196  A    between atoms: _458  and  _459
REMARK  197  A    between atoms: _464  and  _466
REMARK  198  A    between atoms: _466  and  _467
REMARK  199  A    between atoms: _469  and  _471
REMARK  200  A    between atoms: _471  and  _472
REMARK  201  A    between atoms: _471  and  _474
REMARK  202  A    between atoms: _474  and  _475
REMARK  203  A    between atoms: _480  and  _482
REMARK  204  A    between atoms: _482  and  _483
REMARK  205  A    between atoms: _486  and  _488
REMARK  206  A    between atoms: _488  and  _489
REMARK  207  A    between atoms: _488  and  _491
REMARK  208  A    between atoms: _491  and  _492
REMARK  209  A    between atoms: _492  and  _493
REMARK  210  A    between atoms: _493  and  _494
REMARK  211  A    between atoms: _494  and  _495
REMARK  212  A    between atoms: _499  and  _501
REMARK  213  A    between atoms: _501  and  _502
REMARK  214  A    between atoms: _501  and  _504
REMARK  215  A    between atoms: _504  and  _505
REMARK  216  A    between atoms: _505  and  _506
REMARK  217  A    between atoms: _505  and  _507
REMARK  218  A    between atoms: _506  and  MG_619
REMARK  219  A    between atoms: _510  and  _512
REMARK  220  A    between atoms: _512  and  _513
REMARK  221  A    between atoms: _512  and  _515
REMARK  222  A    between atoms: _515  and  _516
REMARK  223  A    between atoms: _522  and  _524
REMARK  224  A    between atoms: _524  and  _525
REMARK  225  A    between atoms: _524  and  _527
REMARK  226  A    between atoms: _527  and  _528
REMARK  227  A    between atoms: _530  and  _532
REMARK  228  A    between atoms: _532  and  _533
REMARK  229  A    between atoms: _532  and  _535
REMARK  230  A    between atoms: _538  and  _540
REMARK  231  A    between atoms: _540  and  _541
REMARK  232  A    between atoms: _540  and  _543
REMARK  233  A    between atoms: _543  and  _544
REMARK  234  A    between atoms: _550  and  _552
REMARK  235  A    between atoms: _552  and  _553
REMARK  236  A    between atoms: _552  and  _555
REMARK  237  A    between atoms: _555  and  _556
REMARK  238  A    between atoms: _560  and  _561
REMARK  239  A    between atoms: _566  and  _568
REMARK  240  A    between atoms: _568  and  _569
REMARK  241  A    between atoms: _568  and  _571
REMARK  242  A    between atoms: _571  and  _572
REMARK  243  A    between atoms: _578  and  _580
REMARK  244  A    between atoms: _580  and  _581
REMARK  245  A    between atoms: _580  and  _583
REMARK  246  A    between atoms: _583  and  _584
REMARK  247  A    between atoms: _589  and  _590
REMARK  248  A    between atoms: _592  and  _594
REMARK  249  A    between atoms: _594  and  _595
REMARK  250  A    between atoms: _594  and  _597
REMARK  251  A    between atoms: _597  and  _598
REMARK  252  A    between atoms: _598  and  _599
REMARK  253  A    between atoms: _601  and  _603
REMARK  254  A    between atoms: _603  and  _604
REMARK  255  A    between atoms: _603  and  _606
REMARK  256  A    between atoms: _606  and  _607
REMARK  257  A    between atoms: _610  and  _612
REMARK  258  A    between atoms: _612  and  _613
REMARK  259  A    between atoms: _612  and  _615
REMARK  260  A    between atoms: _615  and  _616
REMARK                            x       y       z     vdW  Elec       q    Type
REMARK                         _______ _______ _______ _____ _____    ______ ____
ROOT
ATOM      1  CA  LEU A   1      -9.227  15.396  62.546  0.00  0.00    +0.133 C 
ENDROOT
BRANCH   1   2
ATOM      2  N   LEU A   1      -9.552  16.550  61.722  0.00  0.00    -0.239 NA
ATOM      3  H   LEU A   1      -8.790  17.140  61.331  0.00  0.00    +0.142 HD
ENDBRANCH   1   2
BRANCH   1   4
ATOM      4  C   LEU A   1      -9.700  15.641  63.967  0.00  0.00    +0.224 C 
ATOM      5  O   LEU A   1     -10.163  14.719  64.615  0.00  0.00    -0.287 OA
ENDBRANCH   1   4
BRANCH   1   6
ATOM      6  CB  LEU A   1      -7.725  15.095  62.530  0.00  0.00    +0.025 C 
BRANCH   6   7
ATOM      7  CG  LEU A   1      -7.221  14.421  61.238  0.00  0.00    +0.002 C 
ATOM      8  CD2 LEU A   1      -5.692  14.407  61.194  0.00  0.00    +0.000 C 
ATOM      9  CD1 LEU A   1      -7.766  12.974  61.162  0.00  0.00    +0.000 C 
ENDBRANCH   6   7
ENDBRANCH   1   6
TORSDOF 4
REMARK  Name = ../refined-set-2016/3dnt/3dnt_pocket.pdb
REMARK  260 active torsions:
REMARK  status: ('A' for Active; 'I' for Inactive)
REMARK    1  A    between atoms: _1  and  _3
REMARK    2  A    between atoms: _3  and  _4
REMARK    3  A    between atoms: _3  and  _6
REMARK    4  A    between atoms: _6  and  _7
REMARK    5  A    between atoms: _12  and  _14
REMARK    6  A    between atoms: _14  and  _15
REMARK    7  A    between atoms: _14  and  _17
REMARK    8  A    between atoms: _17  and  _18
REMARK    9  A    between atoms: _21  and  _23
REMARK   10  A    between atoms: _23  and  _24
REMARK   11  A    between atoms: _23  and  _26
REMARK   12  A    between atoms: _26  and  _27
REMARK   13  A    between atoms: _31  and  _32
REMARK   14  A    between atoms: _37  and  _39
REMARK   15  A    between atoms: _39  and  _40
REMARK   16  A    between atoms: _39  and  _42
REMARK   17  A    between atoms: _42  and  _43
REMARK   18  A    between atoms: _46  and  _48
REMARK   19  A    between atoms: _48  and  _49
REMARK   20  A    between atoms: _48  and  _51
REMARK   21  A    between atoms: _51  and  _52
REMARK   22  A    between atoms: _54  and  _56
REMARK   23  A    between atoms: _56  and  _57
REMARK   24  A    between atoms: _56  and  _59
REMARK   25  A    between atoms: _59  and  _60
REMARK   26  A    between atoms: _62  and  _64
REMARK   27  A    between atoms: _64  and  _65
REMARK   28  A    between atoms: _64  and  _67
REMARK   29  A    between atoms: _70  and  _72
REMARK   30  A    between atoms: _72  and  _73
REMARK   31  A    between atoms: _75  and  _77
REMARK   32  A    between atoms: _77  and  _78
REMARK   33  A    between atoms: _77  and  _80
REMARK   34  A    between atoms: _80  and  _81
REMARK   35  A    between atoms: _83  and  _85
REMARK   36  A    between atoms: _85  and  _86
REMARK   37  A    between atoms: _85  and  _88
REMARK   38  A    between atoms: _91  and  _93
REMARK   39  A    between atoms: _93  and  _94
REMARK   40  A    between atoms: _97  and  _99
REMARK   41  A    between atoms: _99  and  _100
REMARK   42  A    between atoms: _102  and  _104
REMARK   43  A    between atoms: _104  and  _105
REMARK   44  A    between atoms: _108  and  _110
REMARK   45  A    between atoms: _110  and  _111
REMARK   46  A    between atoms: _110  and  _113
REMARK   47  A    between atoms: _113  and  _114
REMARK   48  A    between atoms: _114  and  _115
REMARK   49  A    between atoms: _120  and  _122
REMARK   50  A    between atoms: _122  and  _123
REMARK   51  A    between atoms: _122  and  _125
REMARK   52  A    between atoms: _125  and  _126
REMARK   53  A    between atoms: _126  and  _127
REMARK   54  A    between atoms: _130  and  _132
REMARK   55  A    between atoms: _132  and  _133
REMARK   56  A    between atoms: _132  and  _135
REMARK   57  A    between atoms: _135  and  _136
REMARK   58  A    between atoms: _136  and  _137
REMARK   59  A    between atoms: _137  and  _138
REMARK   60  A    between atoms: _138  and  _139
REMARK   61  A    between atoms: _143  and  _145
REMARK   62  A    between atoms: _145  and  _146
REMARK   63  A    between atoms: _145  and  _148
REMARK   64  A    between atoms: _148  and  _149
REMARK   65  A    between atoms: _152  and  _154
REMARK   66  A    between atoms: _154  and  _155
REMARK   67  A    between atoms: _154  and  _157
REMARK   68  A    between atoms: _157  and  _158
REMARK   69  A    between atoms: _163  and  _165
REMARK   70  A    between atoms: _165  and  _166
REMARK   71  A    between atoms: _165  and  _168
REMARK   72  A    between atoms: _168  and  _169
REMARK   73  A    between atoms: _172  and  _174
REMARK   74  A    between atoms: _174  and  _175
REMARK   75  A    between atoms: _174  and  _177
REMARK   76  A    between atoms: _177  and  _178
REMARK   77  A    between atoms: _181  and  _183
REMARK   78  A    between atoms: _183  and  _184
REMARK   79  A    between atoms: _183  and  _186
REMARK   80  A    between atoms: _186  and  _187
REMARK   81  A    between atoms: _187  and  _188
REMARK   82  A    between atoms: _188  and  _189
REMARK   83  A    between atoms: _189  and  _190
REMARK   84  A    between atoms: _194  and  _196
REMARK   85  A    between atoms: _196  and  _197
REMARK   86  A    between atoms: _196  and  _199
REMARK   87  A    between atoms: _199  and  _200
REMARK   88  A    between atoms: _203  and  _205
REMARK   89  A    between atoms: _205  and  _206
REMARK   90  A    between atoms: _205  and  _208
REMARK   91  A    between atoms: _208  and  _209
REMARK   92  A    between atoms: _212  and  _214
REMARK   93  A    between atoms: _214  and  _215
REMARK   94  A    between atoms: _214  and  _217
REMARK   95  A    between atoms: _217  and  _218
REMARK   96  A    between atoms: _220  and  _222
REMARK   97  A    between atoms: _222  and  _223
REMARK   98  A    between atoms: _222  and  _225
REMARK   99  A    between atoms: _225  and  _226
REMARK  100  A    between atoms: _226  and  _227
REMARK  101  A    between atoms: _230  and  _232
REMARK  102  A    between atoms: _232  and  _233
REMARK  103  A    between atoms: _232  and  _235
REMARK  104  A    between atoms: _235  and  _236
REMARK  105  A    between atoms: _239  and  _241
REMARK  106  A    between atoms: _241  and  _242
REMARK  107  A    between atoms: _241  and  _244
REMARK  108  A    between atoms: _248  and  _249
REMARK  109  A    between atoms: _254  and  _256
REMARK  110  A    between atoms: _256  and  _257
REMARK  111  A    between atoms: _256  and  _259
REMARK  112  A    between atoms: _259  and  _260
REMARK  113  A    between atoms: _263  and  _265
REMARK  114  A    between atoms: _265  and  _266
REMARK  115  A    between atoms: _269  and  _271
REMARK  116  A    between atoms: _271  and  _272
REMARK  117  A    between atoms: _271  and  _274
REMARK  118  A    between atoms: _274  and  _275
REMARK  119  A    between atoms: _278  and  _280
REMARK  120  A    between atoms: _280  and  _281
REMARK  121  A    between atoms: _284  and  _286
REMARK  122  A    between atoms: _286  and  _287
REMARK  123  A    between atoms: _286  and  _289
REMARK  124  A    between atoms: _292  and  _294
REMARK  125  A    between atoms: _294  and  _295
REMARK  126  A    between atoms: _294  and  _297
REMARK  127  A    between atoms: _297  and  _298
REMARK  128  A    between atoms: _298  and  _299
REMARK  129  A    between atoms: _302  and  _304
REMARK  130  A    between atoms: _304  and  _305
REMARK  131  A    between atoms: _304  and  _307
REMARK  132  A    between atoms: _307  and  _308
REMARK  133  A    between atoms: _308  and  _309
REMARK  134  A    between atoms: _309  and  _310
REMARK  135  A    between atoms: _319  and  _321
REMARK  136  A    between atoms: _321  and  _322
REMARK  137  A    between atoms: _321  and  _324
REMARK  138  A    between atoms: _324  and  _325
REMARK  139  A    between atoms: _331  and  _333
REMARK  140  A    between atoms: _333  and  _334
REMARK  141  A    between atoms: _333  and  _336
REMARK  142  A    between atoms: _336  and  _337
REMARK  143  A    between atoms: _340  and  _342
REMARK  144  A    between atoms: _342  and  _343
REMARK  145  A    between atoms: _342  and  _345
REMARK  146  A    between atoms: _345  and  _346
REMARK  147  A    between atoms: _346  and  _347
REMARK  148  A    between atoms: _347  and  _348
REMARK  149  A    between atoms: _357  and  _359
REMARK  150  A    between atoms: _359  and  _360
REMARK  151  A    between atoms: _359  and  _362
REMARK  152  A    between atoms: _362  and  _363
REMARK  153  A    between atoms: _366  and  _368
REMARK  154  A    between atoms: _368  and  _369
REMARK  155  A    between atoms: _368  and  _371
REMARK  156  A    between atoms: _371  and  _372
REMARK  157  A    between atoms: _372  and  _373
REMARK  158  A    between atoms: _378  and  _380
REMARK  159  A    between atoms: _380  and  _381
REMARK  160  A    between atoms: _380  and  _383
REMARK  161  A    between atoms: _383  and  _384
REMARK  162  A    between atoms: _384  and  _385
REMARK  163  A    between atoms: _388  and  _390
REMARK  164  A    between atoms: _390  and  _391
REMARK  165  A    between atoms: _390  and  _393
REMARK  166  A    between atoms: _393  and  _394
REMARK  167  A    between atoms: _397  and  _399
REMARK  168  A    between atoms: _399  and  _400
REMARK  169  A    between atoms: _399  and  _402
REMARK  170  A    between atoms: _402  and  _403
REMARK  171  A    between atoms: _403  and  _404
REMARK  172  A    between atoms: _406  and  _408
REMARK  173  A    between atoms: _408  and  _409
REMARK  174  A    between atoms: _408  and  _411
REMARK  175  A    between atoms: _413  and  _415
REMARK  176  A    between atoms: _415  and  _416
REMARK  177  A    between atoms: _415  and  _418
REMARK  178  A    between atoms: _418  and  _419
REMARK  179  A    between atoms: _419  and  _420
REMARK  180  A    between atoms: _425  and  _427
REMARK  181  A    between atoms: _427  and  _428
REMARK  182  A    between atoms: _427  and  _430
REMARK  183  A    between atoms: _430  and  _431
REMARK  184  A    between atoms: _431  and  _432
REMARK  185  A    between atoms: _432  and  _433
REMARK  186  A    between atoms: _433  and  _434
REMARK  187  A    between atoms: _438  and  _440
REMARK  188  A    between atoms: _440  and  _441
REMARK  189  A    between atoms: _440  and  _443
REMARK  190  A    between atoms: _443  and  _444
REMARK  191  A    between atoms: _449  and  _450
REMARK  192  A    between atoms: _452  and  _454
REMARK  193  A    between atoms: _454  and  _455
REMARK  194  A    between atoms: _454  and  _457
REMARK  195  A    between atoms: _457  and  _458
REMARK  196  A    between atoms: _458  and  _459
REMARK  197  A    between atoms: _464  and  _466
REMARK  198  A    between atoms: _466  and  _467
REMARK  199  A    between atoms: _469  and  _471
REMARK  200  A    between atoms: _471  and  _472
REMARK  201  A    between atoms: _471  and  _474
REMARK  202  A    between atoms: _474  and  _475
REMARK  203  A    between atoms: _480  and  _482
REMARK  204  A    between atoms: _482  and  _483
REMARK  205  A    between atoms: _486  and  _488
REMARK  206  A    between atoms: _488  and  _489
REMARK  207  A    between atoms: _488  and  _491
REMARK  208  A    between atoms: _491  and  _492
REMARK  209  A    between atoms: _492  and  _493
REMARK  210  A    between atoms: _493  and  _494
REMARK  211  A    between atoms: _494  and  _495
REMARK  212  A    between atoms: _499  and  _501
REMARK  213  A    between atoms: _501  and  _502
REMARK  214  A    between atoms: _501  and  _504
REMARK  215  A    between atoms: _504  and  _505
REMARK  216  A    between atoms: _505  and  _506
REMARK  217  A    between atoms: _505  and  _507
REMARK  218  A    between atoms: _506  and  MG_619
REMARK  219  A    between atoms: _510  and  _512
REMARK  220  A    between atoms: _512  and  _513
REMARK  221  A    between atoms: _512  and  _515
REMARK  222  A    between atoms: _515  and  _516
REMARK  223  A    between atoms: _522  and  _524
REMARK  224  A    between atoms: _524  and  _525
REMARK  225  A    between atoms: _524  and  _527
REMARK  226  A    between atoms: _527  and  _528
REMARK  227  A    between atoms: _530  and  _532
REMARK  228  A    between atoms: _532  and  _533
REMARK  229  A    between atoms: _532  and  _535
REMARK  230  A    between atoms: _538  and  _540
REMARK  231  A    between atoms: _540  and  _541
REMARK  232  A    between atoms: _540  and  _543
REMARK  233  A    between atoms: _543  and  _544
REMARK  234  A    between atoms: _550  and  _552
REMARK  235  A    between atoms: _552  and  _553
REMARK  236  A    between atoms: _552  and  _555
REMARK  237  A    between atoms: _555  and  _556
REMARK  238  A    between atoms: _560  and  _561
REMARK  239  A    between atoms: _566  and  _568
REMARK  240  A    between atoms: _568  and  _569
REMARK  241  A    between atoms: _568  and  _571
REMARK  242  A    between atoms: _571  and  _572
REMARK  243  A    between atoms: _578  and  _580
REMARK  244  A    between atoms: _580  and  _581
REMARK  245  A    between atoms: _580  and  _583
REMARK  246  A    between atoms: _583  and  _584
REMARK  247  A    between atoms: _589  and  _590
REMARK  248  A    between atoms: _592  and  _594
REMARK  249  A    between atoms: _594  and  _595
REMARK  250  A    between atoms: _594  and  _597
REMARK  251  A    between atoms: _597  and  _598
REMARK  252  A    between atoms: _598  and  _599
REMARK  253  A    between atoms: _601  and  _603
REMARK  254  A    between atoms: _603  and  _604
REMARK  255  A    between atoms: _603  and  _606
REMARK  256  A    between atoms: _606  and  _607
REMARK  257  A    between atoms: _610  and  _612
REMARK  258  A    between atoms: _612  and  _613
REMARK  259  A    between atoms: _612  and  _615
REMARK  260  A    between atoms: _615  and  _616
REMARK                            x       y       z     vdW  Elec       q    Type
REMARK                         _______ _______ _______ _____ _____    ______ ____
ROOT
ATOM      1  C   PRO A   2      -5.347  10.586  64.989  0.00  0.00    +0.241 C 
ATOM      2  N   ASP A   3      -4.492  10.663  65.996  0.00  0.00    -0.297 N 
ATOM      3  H   ASP A   3      -4.022   9.803  66.343  0.00  0.00    +0.150 HD
ATOM      4  O   PRO A   2      -6.014  11.546  64.586  0.00  0.00    -0.273 OA
ENDROOT
BRANCH   1   8
ATOM      5  C   VAL A   1      -7.902   8.879  64.315  0.00  0.00    +0.241 C 
ATOM      6  O   VAL A   1      -7.925   8.807  65.558  0.00  0.00    -0.273 OA
ATOM      7  N   PRO A   2      -6.761   9.068  63.633  0.00  0.00    -0.272 N 
ATOM      8  CA  PRO A   2      -5.498   9.201  64.356  0.00  0.00    +0.152 C 
ATOM      9  CB  PRO A   2      -4.459   8.959  63.271  0.00  0.00    +0.031 C 
ATOM     10  CG  PRO A   2      -5.101   9.545  62.054  0.00  0.00    +0.024 C 
ATOM     11  CD  PRO A   2      -6.537   9.048  62.171  0.00  0.00    +0.094 C 
BRANCH   5  12
ATOM     12  CA  VAL A   1      -9.187   8.755  63.502  0.00  0.00    +0.145 C 
BRANCH  12  13
ATOM     13  CB  VAL A   1      -9.625  10.185  63.091  0.00  0.00    +0.025 C 
ATOM     14  CG2 VAL A   1      -9.949  11.004  64.334  0.00  0.00    +0.002 C 
ATOM     15  CG1 VAL A   1     -10.817  10.120  62.168  0.00  0.00    +0.002 C 
ENDBRANCH  12  13
BRANCH  12  16
ATOM     16  N   VAL A   1     -10.187   8.091  64.330  0.00  0.00    -0.238 NA
ATOM     17  H   VAL A   1     -10.238   8.332  65.340  0.00  0.00    +0.142 HD
ENDBRANCH  12  16
ENDBRANCH   5  12
ENDBRANCH   1   8
BRANCH   2  18
ATOM     18  CA  ASP A   3      -4.206  11.948  66.622  0.00  0.00    +0.160 C 
BRANCH  18  19
ATOM     19  C   ASP A   3      -3.144  12.575  65.744  0.00  0.00    +0.241 C 
ATOM     20  N   ALA A   4      -3.126  13.904  65.691  0.00  0.00    -0.298 N 
ATOM     21  H   ALA A   4      -3.830  14.436  66.242  0.00  0.00    +0.150 HD
ATOM     22  O   ASP A   3      -2.361  11.872  65.116  0.00  0.00    -0.273 OA
BRANCH  20  23
ATOM     23  CA  ALA A   4      -2.163  14.641  64.895  0.00  0.00    +0.137 C 
ATOM     24  CB  ALA A   4      -2.740  14.996  63.541  0.00  0.00    +0.030 C 
BRANCH  23  25
ATOM     25  C   ALA A   4      -1.827  15.921  65.624  0.00  0.00    +0.227 C 
ATOM     26  O   ALA A   4      -2.598  16.389  66.465  0.00  0.00    -0.286 OA
ENDBRANCH  23  25
ENDBRANCH  20  23
ENDBRANCH  18  19
BRANCH  18  27
ATOM     27  CB  ASP A   3      -3.652  11.776  68.038  0.00  0.00    +0.143 C 
BRANCH  27  28
ATOM     28  CG  ASP A   3      -4.717  11.385  69.035  0.00  0.00    +0.367 C 
ATOM     29  OD2 ASP A   3      -4.372  10.686  70.008  0.00  0.00    -0.246 OA
ATOM     30  OD1 ASP A   3      -5.894  11.782  68.859  0.00  0.00    -0.246 OA
ENDBRANCH  27  28
ENDBRANCH  18  27
ENDBRANCH   2  18
TORSDOF 10
REMARK  Name = ../refined-set-2016/3dnt/3dnt_pocket.pdb
REMARK  260 active torsions:
REMARK  status: ('A' for Active; 'I' for Inactive)
REMARK    1  A    between atoms: _1  and  _3
REMARK    2  A    between atoms: _3  and  _4
REMARK    3  A    between atoms: _3  and  _6
REMARK    4  A    between atoms: _6  and  _7
REMARK    5  A    between atoms: _12  and  _14
REMARK    6  A    between atoms: _14  and  _15
REMARK    7  A    between atoms: _14  and  _17
REMARK    8  A    between atoms: _17  and  _18
REMARK    9  A    between atoms: _21  and  _23
REMARK   10  A    between atoms: _23  and  _24
REMARK   11  A    between atoms: _23  and  _26
REMARK   12  A    between atoms: _26  and  _27
REMARK   13  A    between atoms: _31  and  _32
REMARK   14  A    between atoms: _37  and  _39
REMARK   15  A    between atoms: _39  and  _40
REMARK   16  A    between atoms: _39  and  _42
REMARK   17  A    between atoms: _42  and  _43
REMARK   18  A    between atoms: _46  and  _48
REMARK   19  A    between atoms: _48  and  _49
REMARK   20  A    between atoms: _48  and  _51
REMARK   21  A    between atoms: _51  and  _52
REMARK   22  A    between atoms: _54  and  _56
REMARK   23  A    between atoms: _56  and  _57
REMARK   24  A    between atoms: _56  and  _59
REMARK   25  A    between atoms: _59  and  _60
REMARK   26  A    between atoms: _62  and  _64
REMARK   27  A    between atoms: _64  and  _65
REMARK   28  A    between atoms: _64  and  _67
REMARK   29  A    between atoms: _70  and  _72
REMARK   30  A    between atoms: _72  and  _73
REMARK   31  A    between atoms: _75  and  _77
REMARK   32  A    between atoms: _77  and  _78
REMARK   33  A    between atoms: _77  and  _80
REMARK   34  A    between atoms: _80  and  _81
REMARK   35  A    between atoms: _83  and  _85
REMARK   36  A    between atoms: _85  and  _86
REMARK   37  A    between atoms: _85  and  _88
REMARK   38  A    between atoms: _91  and  _93
REMARK   39  A    between atoms: _93  and  _94
REMARK   40  A    between atoms: _97  and  _99
REMARK   41  A    between atoms: _99  and  _100
REMARK   42  A    between atoms: _102  and  _104
REMARK   43  A    between atoms: _104  and  _105
REMARK   44  A    between atoms: _108  and  _110
REMARK   45  A    between atoms: _110  and  _111
REMARK   46  A    between atoms: _110  and  _113
REMARK   47  A    between atoms: _113  and  _114
REMARK   48  A    between atoms: _114  and  _115
REMARK   49  A    between atoms: _120  and  _122
REMARK   50  A    between atoms: _122  and  _123
REMARK   51  A    between atoms: _122  and  _125
REMARK   52  A    between atoms: _125  and  _126
REMARK   53  A    between atoms: _126  and  _127
REMARK   54  A    between atoms: _130  and  _132
REMARK   55  A    between atoms: _132  and  _133
REMARK   56  A    between atoms: _132  and  _135
REMARK   57  A    between atoms: _135  and  _136
REMARK   58  A    between atoms: _136  and  _137
REMARK   59  A    between atoms: _137  and  _138
REMARK   60  A    between atoms: _138  and  _139
REMARK   61  A    between atoms: _143  and  _145
REMARK   62  A    between atoms: _145  and  _146
REMARK   63  A    between atoms: _145  and  _148
REMARK   64  A    between atoms: _148  and  _149
REMARK   65  A    between atoms: _152  and  _154
REMARK   66  A    between atoms: _154  and  _155
REMARK   67  A    between atoms: _154  and  _157
REMARK   68  A    between atoms: _157  and  _158
REMARK   69  A    between atoms: _163  and  _165
REMARK   70  A    between atoms: _165  and  _166
REMARK   71  A    between atoms: _165  and  _168
REMARK   72  A    between atoms: _168  and  _169
REMARK   73  A    between atoms: _172  and  _174
REMARK   74  A    between atoms: _174  and  _175
REMARK   75  A    between atoms: _174  and  _177
REMARK   76  A    between atoms: _177  and  _178
REMARK   77  A    between atoms: _181  and  _183
REMARK   78  A    between atoms: _183  and  _184
REMARK   79  A    between atoms: _183  and  _186
REMARK   80  A    between atoms: _186  and  _187
REMARK   81  A    between atoms: _187  and  _188
REMARK   82  A    between atoms: _188  and  _189
REMARK   83  A    between atoms: _189  and  _190
REMARK   84  A    between atoms: _194  and  _196
REMARK   85  A    between atoms: _196  and  _197
REMARK   86  A    between atoms: _196  and  _199
REMARK   87  A    between atoms: _199  and  _200
REMARK   88  A    between atoms: _203  and  _205
REMARK   89  A    between atoms: _205  and  _206
REMARK   90  A    between atoms: _205  and  _208
REMARK   91  A    between atoms: _208  and  _209
REMARK   92  A    between atoms: _212  and  _214
REMARK   93  A    between atoms: _214  and  _215
REMARK   94  A    between atoms: _214  and  _217
REMARK   95  A    between atoms: _217  and  _218
REMARK   96  A    between atoms: _220  and  _222
REMARK   97  A    between atoms: _222  and  _223
REMARK   98  A    between atoms: _222  and  _225
REMARK   99  A    between atoms: _225  and  _226
REMARK  100  A    between atoms: _226  and  _227
REMARK  101  A    between atoms: _230  and  _232
REMARK  102  A    between atoms: _232  and  _233
REMARK  103  A    between atoms: _232  and  _235
REMARK  104  A    between atoms: _235  and  _236
REMARK  105  A    between atoms: _239  and  _241
REMARK  106  A    between atoms: _241  and  _242
REMARK  107  A    between atoms: _241  and  _244
REMARK  108  A    between atoms: _248  and  _249
REMARK  109  A    between atoms: _254  and  _256
REMARK  110  A    between atoms: _256  and  _257
REMARK  111  A    between atoms: _256  and  _259
REMARK  112  A    between atoms: _259  and  _260
REMARK  113  A    between atoms: _263  and  _265
REMARK  114  A    between atoms: _265  and  _266
REMARK  115  A    between atoms: _269  and  _271
REMARK  116  A    between atoms: _271  and  _272
REMARK  117  A    between atoms: _271  and  _274
REMARK  118  A    between atoms: _274  and  _275
REMARK  119  A    between atoms: _278  and  _280
REMARK  120  A    between atoms: _280  and  _281
REMARK  121  A    between atoms: _284  and  _286
REMARK  122  A    between atoms: _286  and  _287
REMARK  123  A    between atoms: _286  and  _289
REMARK  124  A    between atoms: _292  and  _294
REMARK  125  A    between atoms: _294  and  _295
REMARK  126  A    between atoms: _294  and  _297
REMARK  127  A    between atoms: _297  and  _298
REMARK  128  A    between atoms: _298  and  _299
REMARK  129  A    between atoms: _302  and  _304
REMARK  130  A    between atoms: _304  and  _305
REMARK  131  A    between atoms: _304  and  _307
REMARK  132  A    between atoms: _307  and  _308
REMARK  133  A    between atoms: _308  and  _309
REMARK  134  A    between atoms: _309  and  _310
REMARK  135  A    between atoms: _319  and  _321
REMARK  136  A    between atoms: _321  and  _322
REMARK  137  A    between atoms: _321  and  _324
REMARK  138  A    between atoms: _324  and  _325
REMARK  139  A    between atoms: _331  and  _333
REMARK  140  A    between atoms: _333  and  _334
REMARK  141  A    between atoms: _333  and  _336
REMARK  142  A    between atoms: _336  and  _337
REMARK  143  A    between atoms: _340  and  _342
REMARK  144  A    between atoms: _342  and  _343
REMARK  145  A    between atoms: _342  and  _345
REMARK  146  A    between atoms: _345  and  _346
REMARK  147  A    between atoms: _346  and  _347
REMARK  148  A    between atoms: _347  and  _348
REMARK  149  A    between atoms: _357  and  _359
REMARK  150  A    between atoms: _359  and  _360
REMARK  151  A    between atoms: _359  and  _362
REMARK  152  A    between atoms: _362  and  _363
REMARK  153  A    between atoms: _366  and  _368
REMARK  154  A    between atoms: _368  and  _369
REMARK  155  A    between atoms: _368  and  _371
REMARK  156  A    between atoms: _371  and  _372
REMARK  157  A    between atoms: _372  and  _373
REMARK  158  A    between atoms: _378  and  _380
REMARK  159  A    between atoms: _380  and  _381
REMARK  160  A    between atoms: _380  and  _383
REMARK  161  A    between atoms: _383  and  _384
REMARK  162  A    between atoms: _384  and  _385
REMARK  163  A    between atoms: _388  and  _390
REMARK  164  A    between atoms: _390  and  _391
REMARK  165  A    between atoms: _390  and  _393
REMARK  166  A    between atoms: _393  and  _394
REMARK  167  A    between atoms: _397  and  _399
REMARK  168  A    between atoms: _399  and  _400
REMARK  169  A    between atoms: _399  and  _402
REMARK  170  A    between atoms: _402  and  _403
REMARK  171  A    between atoms: _403  and  _404
REMARK  172  A    between atoms: _406  and  _408
REMARK  173  A    between atoms: _408  and  _409
REMARK  174  A    between atoms: _408  and  _411
REMARK  175  A    between atoms: _413  and  _415
REMARK  176  A    between atoms: _415  and  _416
REMARK  177  A    between atoms: _415  and  _418
REMARK  178  A    between atoms: _418  and  _419
REMARK  179  A    between atoms: _419  and  _420
REMARK  180  A    between atoms: _425  and  _427
REMARK  181  A    between atoms: _427  and  _428
REMARK  182  A    between atoms: _427  and  _430
REMARK  183  A    between atoms: _430  and  _431
REMARK  184  A    between atoms: _431  and  _432
REMARK  185  A    between atoms: _432  and  _433
REMARK  186  A    between atoms: _433  and  _434
REMARK  187  A    between atoms: _438  and  _440
REMARK  188  A    between atoms: _440  and  _441
REMARK  189  A    between atoms: _440  and  _443
REMARK  190  A    between atoms: _443  and  _444
REMARK  191  A    between atoms: _449  and  _450
REMARK  192  A    between atoms: _452  and  _454
REMARK  193  A    between atoms: _454  and  _455
REMARK  194  A    between atoms: _454  and  _457
REMARK  195  A    between atoms: _457  and  _458
REMARK  196  A    between atoms: _458  and  _459
REMARK  197  A    between atoms: _464  and  _466
REMARK  198  A    between atoms: _466  and  _467
REMARK  199  A    between atoms: _469  and  _471
REMARK  200  A    between atoms: _471  and  _472
REMARK  201  A    between atoms: _471  and  _474
REMARK  202  A    between atoms: _474  and  _475
REMARK  203  A    between atoms: _480  and  _482
REMARK  204  A    between atoms: _482  and  _483
REMARK  205  A    between atoms: _486  and  _488
REMARK  206  A    between atoms: _488  and  _489
REMARK  207  A    between atoms: _488  and  _491
REMARK  208  A    between atoms: _491  and  _492
REMARK  209  A    between atoms: _492  and  _493
REMARK  210  A    between atoms: _493  and  _494
REMARK  211  A    between atoms: _494  and  _495
REMARK  212  A    between atoms: _499  and  _501
REMARK  213  A    between atoms: _501  and  _502
REMARK  214  A    between atoms: _501  and  _504
REMARK  215  A    between atoms: _504  and  _505
REMARK  216  A    between atoms: _505  and  _506
REMARK  217  A    between atoms: _505  and  _507
REMARK  218  A    between atoms: _506  and  MG_619
REMARK  219  A    between atoms: _510  and  _512
REMARK  220  A    between atoms: _512  and  _513
REMARK  221  A    between atoms: _512  and  _515
REMARK  222  A    between atoms: _515  and  _516
REMARK  223  A    between atoms: _522  and  _524
REMARK  224  A    between atoms: _524  and  _525
REMARK  225  A    between atoms: _524  and  _527
REMARK  226  A    between atoms: _527  and  _528
REMARK  227  A    between atoms: _530  and  _532
REMARK  228  A    between atoms: _532  and  _533
REMARK  229  A    between atoms: _532  and  _535
REMARK  230  A    between atoms: _538  and  _540
REMARK  231  A    between atoms: _540  and  _541
REMARK  232  A    between atoms: _540  and  _543
REMARK  233  A    between atoms: _543  and  _544
REMARK  234  A    between atoms: _550  and  _552
REMARK  235  A    between atoms: _552  and  _553
REMARK  236  A    between atoms: _552  and  _555
REMARK  237  A    between atoms: _555  and  _556
REMARK  238  A    between atoms: _560  and  _561
REMARK  239  A    between atoms: _566  and  _568
REMARK  240  A    between atoms: _568  and  _569
REMARK  241  A    between atoms: _568  and  _571
REMARK  242  A    between atoms: _571  and  _572
REMARK  243  A    between atoms: _578  and  _580
REMARK  244  A    between atoms: _580  and  _581
REMARK  245  A    between atoms: _580  and  _583
REMARK  246  A    between atoms: _583  and  _584
REMARK  247  A    between atoms: _589  and  _590
REMARK  248  A    between atoms: _592  and  _594
REMARK  249  A    between atoms: _594  and  _595
REMARK  250  A    between atoms: _594  and  _597
REMARK  251  A    between atoms: _597  and  _598
REMARK  252  A    between atoms: _598  and  _599
REMARK  253  A    between atoms: _601  and  _603
REMARK  254  A    between atoms: _603  and  _604
REMARK  255  A    between atoms: _603  and  _606
REMARK  256  A    between atoms: _606  and  _607
REMARK  257  A    between atoms: _610  and  _612
REMARK  258  A    between atoms: _612  and  _613
REMARK  259  A    between atoms: _612  and  _615
REMARK  260  A    between atoms: _615  and  _616
REMARK                            x       y       z     vdW  Elec       q    Type
REMARK                         _______ _______ _______ _____ _____    ______ ____
ROOT
ATOM      1  CA  ARG A   5       0.497   6.154  62.232  0.00  0.00    +0.149 C 
ENDROOT
BRANCH   1   3
ATOM      2  C   GLU A   4      -0.107   8.206  63.395  0.00  0.00    +0.241 C 
ATOM      3  N   ARG A   5       0.812   7.297  63.097  0.00  0.00    -0.297 N 
ATOM      4  H   ARG A   5       1.773   7.396  63.483  0.00  0.00    +0.150 HD
ATOM      5  O   GLU A   4      -1.281   8.140  63.038  0.00  0.00    -0.273 OA
BRANCH   2   6
ATOM      6  CA  GLU A   4       0.358   9.351  64.270  0.00  0.00    +0.149 C 
BRANCH   6   8
ATOM      7  C   VAL A   3       0.394  10.995  62.478  0.00  0.00    +0.241 C 
ATOM      8  N   GLU A   4      -0.081  10.594  63.648  0.00  0.00    -0.297 N 
ATOM      9  H   GLU A   4      -0.786  11.182  64.136  0.00  0.00    +0.150 HD
ATOM     10  O   VAL A   3       1.230  10.349  61.850  0.00  0.00    -0.273 OA
BRANCH   7  11
ATOM     11  CA  VAL A   3      -0.150  12.336  61.938  0.00  0.00    +0.149 C 
BRANCH  11  14
ATOM     12  C   ALA A   2       1.276  14.256  62.468  0.00  0.00    +0.241 C 
ATOM     13  O   ALA A   2       0.727  14.461  63.545  0.00  0.00    -0.273 OA
ATOM     14  N   VAL A   3       0.952  13.252  61.651  0.00  0.00    -0.297 N 
ATOM     15  H   VAL A   3       1.503  13.117  60.779  0.00  0.00    +0.150 HD
BRANCH  12  16
ATOM     16  CA  ALA A   2       2.424  15.144  62.026  0.00  0.00    +0.149 C 
ATOM     17  CB  ALA A   2       3.421  15.273  63.162  0.00  0.00    +0.031 C 
BRANCH  16  19
ATOM     18  C   LEU A   1       1.630  16.773  60.413  0.00  0.00    +0.238 C 
ATOM     19  N   ALA A   2       1.865  16.441  61.682  0.00  0.00    -0.297 N 
ATOM     20  H   ALA A   2       1.645  17.120  62.438  0.00  0.00    +0.150 HD
ATOM     21  O   LEU A   1       1.912  16.036  59.469  0.00  0.00    -0.274 OA
BRANCH  18  22
ATOM     22  CA  LEU A   1       1.015  18.141  60.170  0.00  0.00    +0.145 C 
BRANCH  22  23
ATOM     23  N   LEU A   1       1.941  18.927  59.362  0.00  0.00    -0.238 NA
ATOM     24  H   LEU A   1       2.098  18.674  58.366  0.00  0.00    +0.142 HD
ENDBRANCH  22  23
BRANCH  22  25
ATOM     25  CB  LEU A   1      -0.322  17.991  59.439  0.00  0.00    +0.026 C 
BRANCH  25  26
ATOM     26  CG  LEU A   1      -1.431  17.259  60.193  0.00  0.00    +0.002 C 
ATOM     27  CD2 LEU A   1      -1.946  18.151  61.319  0.00  0.00    +0.000 C 
ATOM     28  CD1 LEU A   1      -2.559  16.905  59.244  0.00  0.00    +0.000 C 
ENDBRANCH  25  26
ENDBRANCH  22  25
ENDBRANCH  18  22
ENDBRANCH  16  19
ENDBRANCH  12  16
ENDBRANCH  11  14
BRANCH  11  29
ATOM     29  CB  VAL A   3      -0.982  12.080  60.649  0.00  0.00    +0.027 C 
ATOM     30  CG2 VAL A   3      -2.247  11.282  60.976  0.00  0.00    +0.002 C 
ATOM     31  CG1 VAL A   3      -1.348  13.398  59.984  0.00  0.00    +0.002 C 
ENDBRANCH  11  29
ENDBRANCH   7  11
ENDBRANCH   6   8
BRANCH   6  32
ATOM     32  CB  GLU A   4      -0.256   9.203  65.664  0.00  0.00    +0.041 C 
BRANCH  32  33
ATOM     33  CG  GLU A   4       0.225  10.242  66.677  0.00  0.00    +0.116 C 
BRANCH  33  34
ATOM     34  CD  GLU A   4      -0.364  10.041  68.060  0.00  0.00    +0.365 C 
ATOM     35  OE2 GLU A   4      -0.069  10.863  68.963  0.00  0.00    -0.246 OA
ATOM     36  OE1 GLU A   4      -1.114   9.067  68.254  0.00  0.00    -0.246 OA
ENDBRANCH  33  34
ENDBRANCH  32  33
ENDBRANCH   6  32
ENDBRANCH   2   6
ENDBRANCH   1   3
BRANCH   1  37
ATOM     37  C   ARG A   5      -0.187   5.024  62.983  0.00  0.00    +0.241 C 
ATOM     38  O   ARG A   5       0.287   4.598  64.041  0.00  0.00    -0.273 OA
ATOM     39  N   PHE A   6      -1.295   4.535  62.434  0.00  0.00    -0.297 N 
ATOM     40  H   PHE A   6      -1.670   4.966  61.565  0.00  0.00    +0.150 HD
BRANCH  39  41
ATOM     41  CA  PHE A   6      -1.992   3.403  63.034  0.00  0.00    +0.153 C 
BRANCH  41  42
ATOM     42  C   PHE A   6      -1.537   2.071  62.408  0.00  0.00    +0.241 C 
ATOM     43  O   PHE A   6      -2.066   1.004  62.747  0.00  0.00    -0.273 OA
ATOM     44  N   ASP A   7      -0.573   2.139  61.488  0.00  0.00    -0.297 N 
ATOM     45  H   ASP A   7      -0.240   3.070  61.166  0.00  0.00    +0.150 HD
BRANCH  44  46
ATOM     46  CA  ASP A   7       0.029   0.922  60.919  0.00  0.00    +0.160 C 
BRANCH  46  47
ATOM     47  C   ASP A   7       1.375   0.658  61.619  0.00  0.00    +0.241 C 
ATOM     48  N   ARG A   8       1.526   1.248  62.802  0.00  0.00    -0.298 N 
ATOM     49  H   ARG A   8       0.766   1.859  63.163  0.00  0.00    +0.150 HD
ATOM     50  O   ASP A   7       2.249  -0.028  61.097  0.00  0.00    -0.273 OA
BRANCH  48  51
ATOM     51  CA  ARG A   8       2.730   1.062  63.608  0.00  0.00    +0.137 C 
BRANCH  51  52
ATOM     52  C   ARG A   8       2.283   0.856  65.050  0.00  0.00    +0.227 C 
ATOM     53  O   ARG A   8       1.302   1.445  65.493  0.00  0.00    -0.286 OA
ENDBRANCH  51  52
BRANCH  51  54
ATOM     54  CB  ARG A   8       3.632   2.310  63.547  0.00  0.00    +0.031 C 
BRANCH  54  55
ATOM     55  CG  ARG A   8       4.102   2.686  62.150  0.00  0.00    +0.045 C 
BRANCH  55  56
ATOM     56  CD  ARG A   8       5.184   1.745  61.650  0.00  0.00    +0.174 C 
BRANCH  56  57
ATOM     57  NE  ARG A   8       5.720   2.130  60.337  0.00  0.00    -0.265 N 
ATOM     58  HE  ARG A   8       6.508   2.808  60.314  0.00  0.00    +0.259 HD
ATOM     59  CZ  ARG A   8       5.264   1.669  59.175  0.00  0.00    +0.342 C 
ATOM     60  NH2 ARG A   8       4.250   0.809  59.143  0.00  0.00    -0.292 N 
ATOM     61 HH21 ARG A   8       3.808   0.493  60.030  0.00  0.00    +0.255 HD
ATOM     62 HH22 ARG A   8       3.899   0.453  58.231  0.00  0.00    +0.255 HD
ATOM     63  NH1 ARG A   8       5.843   2.041  58.040  0.00  0.00    -0.292 N 
ATOM     64 HH11 ARG A   8       6.653   2.693  58.059  0.00  0.00    +0.255 HD
ATOM     65 HH12 ARG A   8       5.487   1.681  57.132  0.00  0.00    +0.255 HD
ENDBRANCH  56  57
ENDBRANCH  55  56
ENDBRANCH  54  55
ENDBRANCH  51  54
ENDBRANCH  48  51
ENDBRANCH  46  47
BRANCH  46  66
ATOM     66  CB  ASP A   7       0.228   1.007  59.382  0.00  0.00    +0.143 C 
BRANCH  66  67
ATOM     67  CG  ASP A   7       1.122   2.167  58.937  0.00  0.00    +0.367 C 
ATOM     68  OD2 ASP A   7       1.528   2.981  59.785  0.00  0.00    -0.246 OA
ATOM     69  OD1 ASP A   7       1.439   2.252  57.720  0.00  0.00    -0.246 OA
ENDBRANCH  66  67
ENDBRANCH  46  66
ENDBRANCH  44  46
ENDBRANCH  41  42
BRANCH  41  70
ATOM     70  CB  PHE A   6      -3.516   3.564  62.958  0.00  0.00    +0.055 C 
BRANCH  70  71
ATOM     71  CG  PHE A   6      -4.036   3.984  61.619  0.00  0.00    -0.020 A 
ATOM     72  CD2 PHE A   6      -4.634   5.238  61.466  0.00  0.00    -0.004 A 
ATOM     73  CE2 PHE A   6      -5.177   5.634  60.246  0.00  0.00    -0.000 A 
ATOM     74  CZ  PHE A   6      -5.120   4.752  59.159  0.00  0.00    -0.000 A 
ATOM     75  CE1 PHE A   6      -4.525   3.494  59.308  0.00  0.00    -0.000 A 
ATOM     76  CD1 PHE A   6      -3.986   3.122  60.537  0.00  0.00    -0.004 A 
ENDBRANCH  70  71
ENDBRANCH  41  70
ENDBRANCH  39  41
ENDBRANCH   1  37
BRANCH   1  77
ATOM     77  CB  ARG A   5       1.774   5.600  61.617  0.00  0.00    +0.033 C 
BRANCH  77  78
ATOM     78  CG  ARG A   5       2.543   6.604  60.689  0.00  0.00    +0.045 C 
BRANCH  78  79
ATOM     79  CD  ARG A   5       3.763   5.933  60.061  0.00  0.00    +0.174 C 
BRANCH  79  80
ATOM     80  NE  ARG A   5       3.360   5.001  59.005  0.00  0.00    -0.265 N 
ATOM     81  HE  ARG A   5       2.586   4.338  59.212  0.00  0.00    +0.259 HD
ATOM     82  CZ  ARG A   5       3.916   4.946  57.802  0.00  0.00    +0.342 C 
ATOM     83  NH2 ARG A   5       4.953   5.726  57.484  0.00  0.00    -0.292 N 
ATOM     84 HH21 ARG A   5       5.338   6.391  58.185  0.00  0.00    +0.255 HD
ATOM     85 HH22 ARG A   5       5.375   5.668  56.535  0.00  0.00    +0.255 HD
ATOM     86  NH1 ARG A   5       3.445   4.078  56.914  0.00  0.00    -0.292 N 
ATOM     87 HH11 ARG A   5       2.652   3.455  57.166  0.00  0.00    +0.255 HD
ATOM     88 HH12 ARG A   5       3.869   4.022  55.966  0.00  0.00    +0.255 HD
ENDBRANCH  79  80
ENDBRANCH  78  79
ENDBRANCH  77  78
ENDBRANCH   1  77
TORSDOF 34
REMARK  Name = ../refined-set-2016/3dnt/3dnt_pocket.pdb
REMARK  260 active torsions:
REMARK  status: ('A' for Active; 'I' for Inactive)
REMARK    1  A    between atoms: _1  and  _3
REMARK    2  A    between atoms: _3  and  _4
REMARK    3  A    between atoms: _3  and  _6
REMARK    4  A    between atoms: _6  and  _7
REMARK    5  A    between atoms: _12  and  _14
REMARK    6  A    between atoms: _14  and  _15
REMARK    7  A    between atoms: _14  and  _17
REMARK    8  A    between atoms: _17  and  _18
REMARK    9  A    between atoms: _21  and  _23
REMARK   10  A    between atoms: _23  and  _24
REMARK   11  A    between atoms: _23  and  _26
REMARK   12  A    between atoms: _26  and  _27
REMARK   13  A    between atoms: _31  and  _32
REMARK   14  A    between atoms: _37  and  _39
REMARK   15  A    between atoms: _39  and  _40
REMARK   16  A    between atoms: _39  and  _42
REMARK   17  A    between atoms: _42  and  _43
REMARK   18  A    between atoms: _46  and  _48
REMARK   19  A    between atoms: _48  and  _49
REMARK   20  A    between atoms: _48  and  _51
REMARK   21  A    between atoms: _51  and  _52
REMARK   22  A    between atoms: _54  and  _56
REMARK   23  A    between atoms: _56  and  _57
REMARK   24  A    between atoms: _56  and  _59
REMARK   25  A    between atoms: _59  and  _60
REMARK   26  A    between atoms: _62  and  _64
REMARK   27  A    between atoms: _64  and  _65
REMARK   28  A    between atoms: _64  and  _67
REMARK   29  A    between atoms: _70  and  _72
REMARK   30  A    between atoms: _72  and  _73
REMARK   31  A    between atoms: _75  and  _77
REMARK   32  A    between atoms: _77  and  _78
REMARK   33  A    between atoms: _77  and  _80
REMARK   34  A    between atoms: _80  and  _81
REMARK   35  A    between atoms: _83  and  _85
REMARK   36  A    between atoms: _85  and  _86
REMARK   37  A    between atoms: _85  and  _88
REMARK   38  A    between atoms: _91  and  _93
REMARK   39  A    between atoms: _93  and  _94
REMARK   40  A    between atoms: _97  and  _99
REMARK   41  A    between atoms: _99  and  _100
REMARK   42  A    between atoms: _102  and  _104
REMARK   43  A    between atoms: _104  and  _105
REMARK   44  A    between atoms: _108  and  _110
REMARK   45  A    between atoms: _110  and  _111
REMARK   46  A    between atoms: _110  and  _113
REMARK   47  A    between atoms: _113  and  _114
REMARK   48  A    between atoms: _114  and  _115
REMARK   49  A    between atoms: _120  and  _122
REMARK   50  A    between atoms: _122  and  _123
REMARK   51  A    between atoms: _122  and  _125
REMARK   52  A    between atoms: _125  and  _126
REMARK   53  A    between atoms: _126  and  _127
REMARK   54  A    between atoms: _130  and  _132
REMARK   55  A    between atoms: _132  and  _133
REMARK   56  A    between atoms: _132  and  _135
REMARK   57  A    between atoms: _135  and  _136
REMARK   58  A    between atoms: _136  and  _137
REMARK   59  A    between atoms: _137  and  _138
REMARK   60  A    between atoms: _138  and  _139
REMARK   61  A    between atoms: _143  and  _145
REMARK   62  A    between atoms: _145  and  _146
REMARK   63  A    between atoms: _145  and  _148
REMARK   64  A    between atoms: _148  and  _149
REMARK   65  A    between atoms: _152  and  _154
REMARK   66  A    between atoms: _154  and  _155
REMARK   67  A    between atoms: _154  and  _157
REMARK   68  A    between atoms: _157  and  _158
REMARK   69  A    between atoms: _163  and  _165
REMARK   70  A    between atoms: _165  and  _166
REMARK   71  A    between atoms: _165  and  _168
REMARK   72  A    between atoms: _168  and  _169
REMARK   73  A    between atoms: _172  and  _174
REMARK   74  A    between atoms: _174  and  _175
REMARK   75  A    between atoms: _174  and  _177
REMARK   76  A    between atoms: _177  and  _178
REMARK   77  A    between atoms: _181  and  _183
REMARK   78  A    between atoms: _183  and  _184
REMARK   79  A    between atoms: _183  and  _186
REMARK   80  A    between atoms: _186  and  _187
REMARK   81  A    between atoms: _187  and  _188
REMARK   82  A    between atoms: _188  and  _189
REMARK   83  A    between atoms: _189  and  _190
REMARK   84  A    between atoms: _194  and  _196
REMARK   85  A    between atoms: _196  and  _197
REMARK   86  A    between atoms: _196  and  _199
REMARK   87  A    between atoms: _199  and  _200
REMARK   88  A    between atoms: _203  and  _205
REMARK   89  A    between atoms: _205  and  _206
REMARK   90  A    between atoms: _205  and  _208
REMARK   91  A    between atoms: _208  and  _209
REMARK   92  A    between atoms: _212  and  _214
REMARK   93  A    between atoms: _214  and  _215
REMARK   94  A    between atoms: _214  and  _217
REMARK   95  A    between atoms: _217  and  _218
REMARK   96  A    between atoms: _220  and  _222
REMARK   97  A    between atoms: _222  and  _223
REMARK   98  A    between atoms: _222  and  _225
REMARK   99  A    between atoms: _225  and  _226
REMARK  100  A    between atoms: _226  and  _227
REMARK  101  A    between atoms: _230  and  _232
REMARK  102  A    between atoms: _232  and  _233
REMARK  103  A    between atoms: _232  and  _235
REMARK  104  A    between atoms: _235  and  _236
REMARK  105  A    between atoms: _239  and  _241
REMARK  106  A    between atoms: _241  and  _242
REMARK  107  A    between atoms: _241  and  _244
REMARK  108  A    between atoms: _248  and  _249
REMARK  109  A    between atoms: _254  and  _256
REMARK  110  A    between atoms: _256  and  _257
REMARK  111  A    between atoms: _256  and  _259
REMARK  112  A    between atoms: _259  and  _260
REMARK  113  A    between atoms: _263  and  _265
REMARK  114  A    between atoms: _265  and  _266
REMARK  115  A    between atoms: _269  and  _271
REMARK  116  A    between atoms: _271  and  _272
REMARK  117  A    between atoms: _271  and  _274
REMARK  118  A    between atoms: _274  and  _275
REMARK  119  A    between atoms: _278  and  _280
REMARK  120  A    between atoms: _280  and  _281
REMARK  121  A    between atoms: _284  and  _286
REMARK  122  A    between atoms: _286  and  _287
REMARK  123  A    between atoms: _286  and  _289
REMARK  124  A    between atoms: _292  and  _294
REMARK  125  A    between atoms: _294  and  _295
REMARK  126  A    between atoms: _294  and  _297
REMARK  127  A    between atoms: _297  and  _298
REMARK  128  A    between atoms: _298  and  _299
REMARK  129  A    between atoms: _302  and  _304
REMARK  130  A    between atoms: _304  and  _305
REMARK  131  A    between atoms: _304  and  _307
REMARK  132  A    between atoms: _307  and  _308
REMARK  133  A    between atoms: _308  and  _309
REMARK  134  A    between atoms: _309  and  _310
REMARK  135  A    between atoms: _319  and  _321
REMARK  136  A    between atoms: _321  and  _322
REMARK  137  A    between atoms: _321  and  _324
REMARK  138  A    between atoms: _324  and  _325
REMARK  139  A    between atoms: _331  and  _333
REMARK  140  A    between atoms: _333  and  _334
REMARK  141  A    between atoms: _333  and  _336
REMARK  142  A    between atoms: _336  and  _337
REMARK  143  A    between atoms: _340  and  _342
REMARK  144  A    between atoms: _342  and  _343
REMARK  145  A    between atoms: _342  and  _345
REMARK  146  A    between atoms: _345  and  _346
REMARK  147  A    between atoms: _346  and  _347
REMARK  148  A    between atoms: _347  and  _348
REMARK  149  A    between atoms: _357  and  _359
REMARK  150  A    between atoms: _359  and  _360
REMARK  151  A    between atoms: _359  and  _362
REMARK  152  A    between atoms: _362  and  _363
REMARK  153  A    between atoms: _366  and  _368
REMARK  154  A    between atoms: _368  and  _369
REMARK  155  A    between atoms: _368  and  _371
REMARK  156  A    between atoms: _371  and  _372
REMARK  157  A    between atoms: _372  and  _373
REMARK  158  A    between atoms: _378  and  _380
REMARK  159  A    between atoms: _380  and  _381
REMARK  160  A    between atoms: _380  and  _383
REMARK  161  A    between atoms: _383  and  _384
REMARK  162  A    between atoms: _384  and  _385
REMARK  163  A    between atoms: _388  and  _390
REMARK  164  A    between atoms: _390  and  _391
REMARK  165  A    between atoms: _390  and  _393
REMARK  166  A    between atoms: _393  and  _394
REMARK  167  A    between atoms: _397  and  _399
REMARK  168  A    between atoms: _399  and  _400
REMARK  169  A    between atoms: _399  and  _402
REMARK  170  A    between atoms: _402  and  _403
REMARK  171  A    between atoms: _403  and  _404
REMARK  172  A    between atoms: _406  and  _408
REMARK  173  A    between atoms: _408  and  _409
REMARK  174  A    between atoms: _408  and  _411
REMARK  175  A    between atoms: _413  and  _415
REMARK  176  A    between atoms: _415  and  _416
REMARK  177  A    between atoms: _415  and  _418
REMARK  178  A    between atoms: _418  and  _419
REMARK  179  A    between atoms: _419  and  _420
REMARK  180  A    between atoms: _425  and  _427
REMARK  181  A    between atoms: _427  and  _428
REMARK  182  A    between atoms: _427  and  _430
REMARK  183  A    between atoms: _430  and  _431
REMARK  184  A    between atoms: _431  and  _432
REMARK  185  A    between atoms: _432  and  _433
REMARK  186  A    between atoms: _433  and  _434
REMARK  187  A    between atoms: _438  and  _440
REMARK  188  A    between atoms: _440  and  _441
REMARK  189  A    between atoms: _440  and  _443
REMARK  190  A    between atoms: _443  and  _444
REMARK  191  A    between atoms: _449  and  _450
REMARK  192  A    between atoms: _452  and  _454
REMARK  193  A    between atoms: _454  and  _455
REMARK  194  A    between atoms: _454  and  _457
REMARK  195  A    between atoms: _457  and  _458
REMARK  196  A    between atoms: _458  and  _459
REMARK  197  A    between atoms: _464  and  _466
REMARK  198  A    between atoms: _466  and  _467
REMARK  199  A    between atoms: _469  and  _471
REMARK  200  A    between atoms: _471  and  _472
REMARK  201  A    between atoms: _471  and  _474
REMARK  202  A    between atoms: _474  and  _475
REMARK  203  A    between atoms: _480  and  _482
REMARK  204  A    between atoms: _482  and  _483
REMARK  205  A    between atoms: _486  and  _488
REMARK  206  A    between atoms: _488  and  _489
REMARK  207  A    between atoms: _488  and  _491
REMARK  208  A    between atoms: _491  and  _492
REMARK  209  A    between atoms: _492  and  _493
REMARK  210  A    between atoms: _493  and  _494
REMARK  211  A    between atoms: _494  and  _495
REMARK  212  A    between atoms: _499  and  _501
REMARK  213  A    between atoms: _501  and  _502
REMARK  214  A    between atoms: _501  and  _504
REMARK  215  A    between atoms: _504  and  _505
REMARK  216  A    between atoms: _505  and  _506
REMARK  217  A    between atoms: _505  and  _507
REMARK  218  A    between atoms: _506  and  MG_619
REMARK  219  A    between atoms: _510  and  _512
REMARK  220  A    between atoms: _512  and  _513
REMARK  221  A    between atoms: _512  and  _515
REMARK  222  A    between atoms: _515  and  _516
REMARK  223  A    between atoms: _522  and  _524
REMARK  224  A    between atoms: _524  and  _525
REMARK  225  A    between atoms: _524  and  _527
REMARK  226  A    between atoms: _527  and  _528
REMARK  227  A    between atoms: _530  and  _532
REMARK  228  A    between atoms: _532  and  _533
REMARK  229  A    between atoms: _532  and  _535
REMARK  230  A    between atoms: _538  and  _540
REMARK  231  A    between atoms: _540  and  _541
REMARK  232  A    between atoms: _540  and  _543
REMARK  233  A    between atoms: _543  and  _544
REMARK  234  A    between atoms: _550  and  _552
REMARK  235  A    between atoms: _552  and  _553
REMARK  236  A    between atoms: _552  and  _555
REMARK  237  A    between atoms: _555  and  _556
REMARK  238  A    between atoms: _560  and  _561
REMARK  239  A    between atoms: _566  and  _568
REMARK  240  A    between atoms: _568  and  _569
REMARK  241  A    between atoms: _568  and  _571
REMARK  242  A    between atoms: _571  and  _572
REMARK  243  A    between atoms: _578  and  _580
REMARK  244  A    between atoms: _580  and  _581
REMARK  245  A    between atoms: _580  and  _583
REMARK  246  A    between atoms: _583  and  _584
REMARK  247  A    between atoms: _589  and  _590
REMARK  248  A    between atoms: _592  and  _594
REMARK  249  A    between atoms: _594  and  _595
REMARK  250  A    between atoms: _594  and  _597
REMARK  251  A    between atoms: _597  and  _598
REMARK  252  A    between atoms: _598  and  _599
REMARK  253  A    between atoms: _601  and  _603
REMARK  254  A    between atoms: _603  and  _604
REMARK  255  A    between atoms: _603  and  _606
REMARK  256  A    between atoms: _606  and  _607
REMARK  257  A    between atoms: _610  and  _612
REMARK  258  A    between atoms: _612  and  _613
REMARK  259  A    between atoms: _612  and  _615
REMARK  260  A    between atoms: _615  and  _616
REMARK                            x       y       z     vdW  Elec       q    Type
REMARK                         _______ _______ _______ _____ _____    ______ ____
ROOT
ATOM      1  CA  LEU A   1       1.013  -3.654  61.180  0.00  0.00    +0.133 C 
ENDROOT
BRANCH   1   2
ATOM      2  N   LEU A   1       2.269  -2.869  61.230  0.00  0.00    -0.239 NA
ATOM      3  H   LEU A   1       2.252  -1.858  60.986  0.00  0.00    +0.142 HD
ENDBRANCH   1   2
BRANCH   1   4
ATOM      4  C   LEU A   1       0.556  -3.735  59.725  0.00  0.00    +0.224 C 
ATOM      5  O   LEU A   1       0.416  -2.712  59.070  0.00  0.00    -0.287 OA
ENDBRANCH   1   4
BRANCH   1   6
ATOM      6  CB  LEU A   1      -0.076  -2.946  61.986  0.00  0.00    +0.025 C 
BRANCH   6   7
ATOM      7  CG  LEU A   1       0.243  -2.652  63.454  0.00  0.00    +0.002 C 
ATOM      8  CD2 LEU A   1       0.577  -3.938  64.151  0.00  0.00    +0.000 C 
ATOM      9  CD1 LEU A   1      -0.932  -1.983  64.134  0.00  0.00    +0.000 C 
ENDBRANCH   6   7
ENDBRANCH   1   6
TORSDOF 4
REMARK  Name = ../refined-set-2016/3dnt/3dnt_pocket.pdb
REMARK  260 active torsions:
REMARK  status: ('A' for Active; 'I' for Inactive)
REMARK    1  A    between atoms: _1  and  _3
REMARK    2  A    between atoms: _3  and  _4
REMARK    3  A    between atoms: _3  and  _6
REMARK    4  A    between atoms: _6  and  _7
REMARK    5  A    between atoms: _12  and  _14
REMARK    6  A    between atoms: _14  and  _15
REMARK    7  A    between atoms: _14  and  _17
REMARK    8  A    between atoms: _17  and  _18
REMARK    9  A    between atoms: _21  and  _23
REMARK   10  A    between atoms: _23  and  _24
REMARK   11  A    between atoms: _23  and  _26
REMARK   12  A    between atoms: _26  and  _27
REMARK   13  A    between atoms: _31  and  _32
REMARK   14  A    between atoms: _37  and  _39
REMARK   15  A    between atoms: _39  and  _40
REMARK   16  A    between atoms: _39  and  _42
REMARK   17  A    between atoms: _42  and  _43
REMARK   18  A    between atoms: _46  and  _48
REMARK   19  A    between atoms: _48  and  _49
REMARK   20  A    between atoms: _48  and  _51
REMARK   21  A    between atoms: _51  and  _52
REMARK   22  A    between atoms: _54  and  _56
REMARK   23  A    between atoms: _56  and  _57
REMARK   24  A    between atoms: _56  and  _59
REMARK   25  A    between atoms: _59  and  _60
REMARK   26  A    between atoms: _62  and  _64
REMARK   27  A    between atoms: _64  and  _65
REMARK   28  A    between atoms: _64  and  _67
REMARK   29  A    between atoms: _70  and  _72
REMARK   30  A    between atoms: _72  and  _73
REMARK   31  A    between atoms: _75  and  _77
REMARK   32  A    between atoms: _77  and  _78
REMARK   33  A    between atoms: _77  and  _80
REMARK   34  A    between atoms: _80  and  _81
REMARK   35  A    between atoms: _83  and  _85
REMARK   36  A    between atoms: _85  and  _86
REMARK   37  A    between atoms: _85  and  _88
REMARK   38  A    between atoms: _91  and  _93
REMARK   39  A    between atoms: _93  and  _94
REMARK   40  A    between atoms: _97  and  _99
REMARK   41  A    between atoms: _99  and  _100
REMARK   42  A    between atoms: _102  and  _104
REMARK   43  A    between atoms: _104  and  _105
REMARK   44  A    between atoms: _108  and  _110
REMARK   45  A    between atoms: _110  and  _111
REMARK   46  A    between atoms: _110  and  _113
REMARK   47  A    between atoms: _113  and  _114
REMARK   48  A    between atoms: _114  and  _115
REMARK   49  A    between atoms: _120  and  _122
REMARK   50  A    between atoms: _122  and  _123
REMARK   51  A    between atoms: _122  and  _125
REMARK   52  A    between atoms: _125  and  _126
REMARK   53  A    between atoms: _126  and  _127
REMARK   54  A    between atoms: _130  and  _132
REMARK   55  A    between atoms: _132  and  _133
REMARK   56  A    between atoms: _132  and  _135
REMARK   57  A    between atoms: _135  and  _136
REMARK   58  A    between atoms: _136  and  _137
REMARK   59  A    between atoms: _137  and  _138
REMARK   60  A    between atoms: _138  and  _139
REMARK   61  A    between atoms: _143  and  _145
REMARK   62  A    between atoms: _145  and  _146
REMARK   63  A    between atoms: _145  and  _148
REMARK   64  A    between atoms: _148  and  _149
REMARK   65  A    between atoms: _152  and  _154
REMARK   66  A    between atoms: _154  and  _155
REMARK   67  A    between atoms: _154  and  _157
REMARK   68  A    between atoms: _157  and  _158
REMARK   69  A    between atoms: _163  and  _165
REMARK   70  A    between atoms: _165  and  _166
REMARK   71  A    between atoms: _165  and  _168
REMARK   72  A    between atoms: _168  and  _169
REMARK   73  A    between atoms: _172  and  _174
REMARK   74  A    between atoms: _174  and  _175
REMARK   75  A    between atoms: _174  and  _177
REMARK   76  A    between atoms: _177  and  _178
REMARK   77  A    between atoms: _181  and  _183
REMARK   78  A    between atoms: _183  and  _184
REMARK   79  A    between atoms: _183  and  _186
REMARK   80  A    between atoms: _186  and  _187
REMARK   81  A    between atoms: _187  and  _188
REMARK   82  A    between atoms: _188  and  _189
REMARK   83  A    between atoms: _189  and  _190
REMARK   84  A    between atoms: _194  and  _196
REMARK   85  A    between atoms: _196  and  _197
REMARK   86  A    between atoms: _196  and  _199
REMARK   87  A    between atoms: _199  and  _200
REMARK   88  A    between atoms: _203  and  _205
REMARK   89  A    between atoms: _205  and  _206
REMARK   90  A    between atoms: _205  and  _208
REMARK   91  A    between atoms: _208  and  _209
REMARK   92  A    between atoms: _212  and  _214
REMARK   93  A    between atoms: _214  and  _215
REMARK   94  A    between atoms: _214  and  _217
REMARK   95  A    between atoms: _217  and  _218
REMARK   96  A    between atoms: _220  and  _222
REMARK   97  A    between atoms: _222  and  _223
REMARK   98  A    between atoms: _222  and  _225
REMARK   99  A    between atoms: _225  and  _226
REMARK  100  A    between atoms: _226  and  _227
REMARK  101  A    between atoms: _230  and  _232
REMARK  102  A    between atoms: _232  and  _233
REMARK  103  A    between atoms: _232  and  _235
REMARK  104  A    between atoms: _235  and  _236
REMARK  105  A    between atoms: _239  and  _241
REMARK  106  A    between atoms: _241  and  _242
REMARK  107  A    between atoms: _241  and  _244
REMARK  108  A    between atoms: _248  and  _249
REMARK  109  A    between atoms: _254  and  _256
REMARK  110  A    between atoms: _256  and  _257
REMARK  111  A    between atoms: _256  and  _259
REMARK  112  A    between atoms: _259  and  _260
REMARK  113  A    between atoms: _263  and  _265
REMARK  114  A    between atoms: _265  and  _266
REMARK  115  A    between atoms: _269  and  _271
REMARK  116  A    between atoms: _271  and  _272
REMARK  117  A    between atoms: _271  and  _274
REMARK  118  A    between atoms: _274  and  _275
REMARK  119  A    between atoms: _278  and  _280
REMARK  120  A    between atoms: _280  and  _281
REMARK  121  A    between atoms: _284  and  _286
REMARK  122  A    between atoms: _286  and  _287
REMARK  123  A    between atoms: _286  and  _289
REMARK  124  A    between atoms: _292  and  _294
REMARK  125  A    between atoms: _294  and  _295
REMARK  126  A    between atoms: _294  and  _297
REMARK  127  A    between atoms: _297  and  _298
REMARK  128  A    between atoms: _298  and  _299
REMARK  129  A    between atoms: _302  and  _304
REMARK  130  A    between atoms: _304  and  _305
REMARK  131  A    between atoms: _304  and  _307
REMARK  132  A    between atoms: _307  and  _308
REMARK  133  A    between atoms: _308  and  _309
REMARK  134  A    between atoms: _309  and  _310
REMARK  135  A    between atoms: _319  and  _321
REMARK  136  A    between atoms: _321  and  _322
REMARK  137  A    between atoms: _321  and  _324
REMARK  138  A    between atoms: _324  and  _325
REMARK  139  A    between atoms: _331  and  _333
REMARK  140  A    between atoms: _333  and  _334
REMARK  141  A    between atoms: _333  and  _336
REMARK  142  A    between atoms: _336  and  _337
REMARK  143  A    between atoms: _340  and  _342
REMARK  144  A    between atoms: _342  and  _343
REMARK  145  A    between atoms: _342  and  _345
REMARK  146  A    between atoms: _345  and  _346
REMARK  147  A    between atoms: _346  and  _347
REMARK  148  A    between atoms: _347  and  _348
REMARK  149  A    between atoms: _357  and  _359
REMARK  150  A    between atoms: _359  and  _360
REMARK  151  A    between atoms: _359  and  _362
REMARK  152  A    between atoms: _362  and  _363
REMARK  153  A    between atoms: _366  and  _368
REMARK  154  A    between atoms: _368  and  _369
REMARK  155  A    between atoms: _368  and  _371
REMARK  156  A    between atoms: _371  and  _372
REMARK  157  A    between atoms: _372  and  _373
REMARK  158  A    between atoms: _378  and  _380
REMARK  159  A    between atoms: _380  and  _381
REMARK  160  A    between atoms: _380  and  _383
REMARK  161  A    between atoms: _383  and  _384
REMARK  162  A    between atoms: _384  and  _385
REMARK  163  A    between atoms: _388  and  _390
REMARK  164  A    between atoms: _390  and  _391
REMARK  165  A    between atoms: _390  and  _393
REMARK  166  A    between atoms: _393  and  _394
REMARK  167  A    between atoms: _397  and  _399
REMARK  168  A    between atoms: _399  and  _400
REMARK  169  A    between atoms: _399  and  _402
REMARK  170  A    between atoms: _402  and  _403
REMARK  171  A    between atoms: _403  and  _404
REMARK  172  A    between atoms: _406  and  _408
REMARK  173  A    between atoms: _408  and  _409
REMARK  174  A    between atoms: _408  and  _411
REMARK  175  A    between atoms: _413  and  _415
REMARK  176  A    between atoms: _415  and  _416
REMARK  177  A    between atoms: _415  and  _418
REMARK  178  A    between atoms: _418  and  _419
REMARK  179  A    between atoms: _419  and  _420
REMARK  180  A    between atoms: _425  and  _427
REMARK  181  A    between atoms: _427  and  _428
REMARK  182  A    between atoms: _427  and  _430
REMARK  183  A    between atoms: _430  and  _431
REMARK  184  A    between atoms: _431  and  _432
REMARK  185  A    between atoms: _432  and  _433
REMARK  186  A    between atoms: _433  and  _434
REMARK  187  A    between atoms: _438  and  _440
REMARK  188  A    between atoms: _440  and  _441
REMARK  189  A    between atoms: _440  and  _443
REMARK  190  A    between atoms: _443  and  _444
REMARK  191  A    between atoms: _449  and  _450
REMARK  192  A    between atoms: _452  and  _454
REMARK  193  A    between atoms: _454  and  _455
REMARK  194  A    between atoms: _454  and  _457
REMARK  195  A    between atoms: _457  and  _458
REMARK  196  A    between atoms: _458  and  _459
REMARK  197  A    between atoms: _464  and  _466
REMARK  198  A    between atoms: _466  and  _467
REMARK  199  A    between atoms: _469  and  _471
REMARK  200  A    between atoms: _471  and  _472
REMARK  201  A    between atoms: _471  and  _474
REMARK  202  A    between atoms: _474  and  _475
REMARK  203  A    between atoms: _480  and  _482
REMARK  204  A    between atoms: _482  and  _483
REMARK  205  A    between atoms: _486  and  _488
REMARK  206  A    between atoms: _488  and  _489
REMARK  207  A    between atoms: _488  and  _491
REMARK  208  A    between atoms: _491  and  _492
REMARK  209  A    between atoms: _492  and  _493
REMARK  210  A    between atoms: _493  and  _494
REMARK  211  A    between atoms: _494  and  _495
REMARK  212  A    between atoms: _499  and  _501
REMARK  213  A    between atoms: _501  and  _502
REMARK  214  A    between atoms: _501  and  _504
REMARK  215  A    between atoms: _504  and  _505
REMARK  216  A    between atoms: _505  and  _506
REMARK  217  A    between atoms: _505  and  _507
REMARK  218  A    between atoms: _506  and  MG_619
REMARK  219  A    between atoms: _510  and  _512
REMARK  220  A    between atoms: _512  and  _513
REMARK  221  A    between atoms: _512  and  _515
REMARK  222  A    between atoms: _515  and  _516
REMARK  223  A    between atoms: _522  and  _524
REMARK  224  A    between atoms: _524  and  _525
REMARK  225  A    between atoms: _524  and  _527
REMARK  226  A    between atoms: _527  and  _528
REMARK  227  A    between atoms: _530  and  _532
REMARK  228  A    between atoms: _532  and  _533
REMARK  229  A    between atoms: _532  and  _535
REMARK  230  A    between atoms: _538  and  _540
REMARK  231  A    between atoms: _540  and  _541
REMARK  232  A    between atoms: _540  and  _543
REMARK  233  A    between atoms: _543  and  _544
REMARK  234  A    between atoms: _550  and  _552
REMARK  235  A    between atoms: _552  and  _553
REMARK  236  A    between atoms: _552  and  _555
REMARK  237  A    between atoms: _555  and  _556
REMARK  238  A    between atoms: _560  and  _561
REMARK  239  A    between atoms: _566  and  _568
REMARK  240  A    between atoms: _568  and  _569
REMARK  241  A    between atoms: _568  and  _571
REMARK  242  A    between atoms: _571  and  _572
REMARK  243  A    between atoms: _578  and  _580
REMARK  244  A    between atoms: _580  and  _581
REMARK  245  A    between atoms: _580  and  _583
REMARK  246  A    between atoms: _583  and  _584
REMARK  247  A    between atoms: _589  and  _590
REMARK  248  A    between atoms: _592  and  _594
REMARK  249  A    between atoms: _594  and  _595
REMARK  250  A    between atoms: _594  and  _597
REMARK  251  A    between atoms: _597  and  _598
REMARK  252  A    between atoms: _598  and  _599
REMARK  253  A    between atoms: _601  and  _603
REMARK  254  A    between atoms: _603  and  _604
REMARK  255  A    between atoms: _603  and  _606
REMARK  256  A    between atoms: _606  and  _607
REMARK  257  A    between atoms: _610  and  _612
REMARK  258  A    between atoms: _612  and  _613
REMARK  259  A    between atoms: _612  and  _615
REMARK  260  A    between atoms: _615  and  _616
REMARK                            x       y       z     vdW  Elec       q    Type
REMARK                         _______ _______ _______ _____ _____    ______ ____
ROOT
ATOM      1  C   ASP A   3      -7.210  -0.325  50.093  0.00  0.00    +0.000 C 
ATOM      2  N   UNK A   4      -8.338   0.321  49.794  0.00  0.00    +0.000 N 
ATOM      3  H   UNK A   4      -8.494   1.297  50.118  0.00  0.00    +0.000 HD
ATOM      4  O   ASP A   3      -6.982  -1.459  49.691  0.00  0.00    +0.000 OA
ENDROOT
BRANCH   2   5
ATOM      5  C   UNK A   4      -9.345  -0.370  49.005  0.00  0.00    +0.000 C 
BRANCH   5   6
ATOM      6  C   UNK A   4      -8.922  -0.664  47.572  0.00  0.00    +0.000 C 
ATOM      7  N   CYS A   5      -8.094   0.183  46.966  0.00  0.00    +0.000 N 
ATOM      8  H   CYS A   5      -7.783   1.058  47.434  0.00  0.00    +0.000 HD
ATOM      9  O   UNK A   4      -9.373  -1.653  46.997  0.00  0.00    +0.000 OA
BRANCH   7  10
ATOM     10  CA  CYS A   5      -7.637  -0.159  45.621  0.00  0.00    +0.000 C 
BRANCH  10  11
ATOM     11  C   CYS A   5      -6.856  -1.472  45.684  0.00  0.00    +0.000 C 
ATOM     12  N   GLN A   6      -5.969  -1.588  46.665  0.00  0.00    +0.000 N 
ATOM     13  H   GLN A   6      -5.841  -0.806  47.339  0.00  0.00    +0.000 HD
ATOM     14  O   CYS A   5      -7.064  -2.380  44.869  0.00  0.00    +0.000 OA
BRANCH  12  15
ATOM     15  CA  GLN A   6      -5.168  -2.807  46.808  0.00  0.00    +0.000 C 
BRANCH  15  16
ATOM     16  C   GLN A   6      -6.061  -4.023  47.090  0.00  0.00    +0.000 C 
ATOM     17  O   GLN A   6      -5.926  -5.071  46.436  0.00  0.00    +0.000 OA
ENDBRANCH  15  16
BRANCH  15  18
ATOM     18  CB  GLN A   6      -4.138  -2.651  47.936  0.00  0.00    +0.000 C 
BRANCH  18  19
ATOM     19  CG  GLN A   6      -3.039  -1.622  47.580  0.00  0.00    +0.000 C 
BRANCH  19  20
ATOM     20  CD  GLN A   6      -2.154  -1.267  48.755  0.00  0.00    +0.000 C 
ATOM     21  OE1 GLN A   6      -2.652  -0.900  49.819  0.00  0.00    +0.000 OA
ATOM     22  NE2 GLN A   6      -0.829  -1.351  48.573  0.00  0.00    +0.000 N 
ATOM     23 HE21 GLN A   6      -0.181  -1.101  49.347  0.00  0.00    +0.000 HD
ATOM     24 HE22 GLN A   6      -0.449  -1.666  47.658  0.00  0.00    +0.000 HD
ENDBRANCH  19  20
ENDBRANCH  18  19
ENDBRANCH  15  18
ENDBRANCH  12  15
ENDBRANCH  10  11
BRANCH  10  25
ATOM     25  CB  CYS A   5      -6.726   0.906  45.039  0.00  0.00    +0.000 C 
ATOM     26  SG  CYS A   5      -7.672   2.295  44.286  0.00  0.00    +0.000 S 
ENDBRANCH  10  25
ENDBRANCH   7  10
ENDBRANCH   5   6
BRANCH   5  27
ATOM     27  C   UNK A   4     -10.671   0.373  49.052  0.00  0.00    +0.000 C 
BRANCH  27  28
ATOM     28  C   UNK A   4     -11.228   0.408  50.468  0.00  0.00    +0.000 C 
BRANCH  28  29
ATOM     29 SE   UNK A   4     -11.784  -1.365  51.188  0.00  0.00    +0.000 Se
ATOM     30  C   UNK A   4     -12.352  -0.771  52.939  0.00  0.00    +0.000 C 
ENDBRANCH  28  29
ENDBRANCH  27  28
ENDBRANCH   5  27
ENDBRANCH   2   5
BRANCH   1  31
ATOM     31  CA  ASP A   3      -6.210   0.385  51.000  0.00  0.00    +0.000 C 
BRANCH  31  34
ATOM     32  C   GLU A   2      -5.117  -1.282  52.380  0.00  0.00    +0.000 C 
ATOM     33  O   GLU A   2      -6.078  -1.337  53.159  0.00  0.00    +0.000 OA
ATOM     34  N   ASP A   3      -5.076  -0.476  51.311  0.00  0.00    +0.000 N 
ATOM     35  H   ASP A   3      -4.233  -0.465  50.702  0.00  0.00    +0.000 HD
BRANCH  32  36
ATOM     36  CA  GLU A   2      -3.894  -2.138  52.628  0.00  0.00    +0.000 C 
BRANCH  36  38
ATOM     37  C   GLN A   1      -2.613  -2.654  54.617  0.00  0.00    +0.000 C 
ATOM     38  N   GLU A   2      -3.802  -2.472  54.062  0.00  0.00    +0.000 N 
ATOM     39  H   GLU A   2      -4.666  -2.564  54.634  0.00  0.00    +0.000 HD
ATOM     40  O   GLN A   1      -1.568  -2.679  53.961  0.00  0.00    +0.000 OA
BRANCH  37  41
ATOM     41  CA  GLN A   1      -2.590  -2.870  56.127  0.00  0.00    +0.000 C 
BRANCH  41  42
ATOM     42  N   GLN A   1      -1.461  -3.726  56.438  0.00  0.00    +0.000 NA
ATOM     43  H   GLN A   1      -0.681  -3.811  55.755  0.00  0.00    +0.000 HD
ENDBRANCH  41  42
BRANCH  41  44
ATOM     44  CB  GLN A   1      -2.359  -1.512  56.810  0.00  0.00    +0.000 C 
BRANCH  44  45
ATOM     45  CG  GLN A   1      -3.389  -0.459  56.537  0.00  0.00    +0.000 C 
BRANCH  45  46
ATOM     46  CD  GLN A   1      -2.996   0.848  57.183  0.00  0.00    +0.000 C 
ATOM     47  OE1 GLN A   1      -2.780   0.889  58.395  0.00  0.00    +0.000 OA
ATOM     48  NE2 GLN A   1      -2.905   1.911  56.393  0.00  0.00    +0.000 N 
ATOM     49 HE21 GLN A   1      -2.640   2.834  56.792  0.00  0.00    +0.000 HD
ATOM     50 HE22 GLN A   1      -3.098   1.821  55.375  0.00  0.00    +0.000 HD
ENDBRANCH  45  46
ENDBRANCH  44  45
ENDBRANCH  41  44
ENDBRANCH  37  41
ENDBRANCH  36  38
BRANCH  36  51
ATOM     51  CB  GLU A   2      -3.925  -3.392  51.737  0.00  0.00    +0.000 C 
BRANCH  51  52
ATOM     52  CG  GLU A   2      -5.188  -4.223  51.812  0.00  0.00    +0.000 C 
BRANCH  52  53
ATOM     53  CD  GLU A   2      -5.196  -5.344  50.780  0.00  0.00    +0.000 C 
ATOM     54  OE2 GLU A   2      -6.044  -6.252  50.905  0.00  0.00    +0.000 OA
ATOM     55  OE1 GLU A   2      -4.360  -5.304  49.857  0.00  0.00    +0.000 OA
ENDBRANCH  52  53
ENDBRANCH  51  52
ENDBRANCH  36  51
ENDBRANCH  32  36
ENDBRANCH  31  34
BRANCH  31  56
ATOM     56  CB  ASP A   3      -5.748   1.748  50.411  0.00  0.00    +0.000 C 
BRANCH  56  57
ATOM     57  CG  ASP A   3      -5.052   1.641  49.071  0.00  0.00    +0.000 C 
ATOM     58  OD2 ASP A   3      -4.025   2.367  48.886  0.00  0.00    +0.000 OA
ATOM     59  OD1 ASP A   3      -5.526   0.912  48.190  0.00  0.00    +0.000 OA
ENDBRANCH  56  57
ENDBRANCH  31  56
ENDBRANCH   1  31
TORSDOF 27
REMARK  Name = ../refined-set-2016/3dnt/3dnt_pocket.pdb
REMARK  260 active torsions:
REMARK  status: ('A' for Active; 'I' for Inactive)
REMARK    1  A    between atoms: _1  and  _3
REMARK    2  A    between atoms: _3  and  _4
REMARK    3  A    between atoms: _3  and  _6
REMARK    4  A    between atoms: _6  and  _7
REMARK    5  A    between atoms: _12  and  _14
REMARK    6  A    between atoms: _14  and  _15
REMARK    7  A    between atoms: _14  and  _17
REMARK    8  A    between atoms: _17  and  _18
REMARK    9  A    between atoms: _21  and  _23
REMARK   10  A    between atoms: _23  and  _24
REMARK   11  A    between atoms: _23  and  _26
REMARK   12  A    between atoms: _26  and  _27
REMARK   13  A    between atoms: _31  and  _32
REMARK   14  A    between atoms: _37  and  _39
REMARK   15  A    between atoms: _39  and  _40
REMARK   16  A    between atoms: _39  and  _42
REMARK   17  A    between atoms: _42  and  _43
REMARK   18  A    between atoms: _46  and  _48
REMARK   19  A    between atoms: _48  and  _49
REMARK   20  A    between atoms: _48  and  _51
REMARK   21  A    between atoms: _51  and  _52
REMARK   22  A    between atoms: _54  and  _56
REMARK   23  A    between atoms: _56  and  _57
REMARK   24  A    between atoms: _56  and  _59
REMARK   25  A    between atoms: _59  and  _60
REMARK   26  A    between atoms: _62  and  _64
REMARK   27  A    between atoms: _64  and  _65
REMARK   28  A    between atoms: _64  and  _67
REMARK   29  A    between atoms: _70  and  _72
REMARK   30  A    between atoms: _72  and  _73
REMARK   31  A    between atoms: _75  and  _77
REMARK   32  A    between atoms: _77  and  _78
REMARK   33  A    between atoms: _77  and  _80
REMARK   34  A    between atoms: _80  and  _81
REMARK   35  A    between atoms: _83  and  _85
REMARK   36  A    between atoms: _85  and  _86
REMARK   37  A    between atoms: _85  and  _88
REMARK   38  A    between atoms: _91  and  _93
REMARK   39  A    between atoms: _93  and  _94
REMARK   40  A    between atoms: _97  and  _99
REMARK   41  A    between atoms: _99  and  _100
REMARK   42  A    between atoms: _102  and  _104
REMARK   43  A    between atoms: _104  and  _105
REMARK   44  A    between atoms: _108  and  _110
REMARK   45  A    between atoms: _110  and  _111
REMARK   46  A    between atoms: _110  and  _113
REMARK   47  A    between atoms: _113  and  _114
REMARK   48  A    between atoms: _114  and  _115
REMARK   49  A    between atoms: _120  and  _122
REMARK   50  A    between atoms: _122  and  _123
REMARK   51  A    between atoms: _122  and  _125
REMARK   52  A    between atoms: _125  and  _126
REMARK   53  A    between atoms: _126  and  _127
REMARK   54  A    between atoms: _130  and  _132
REMARK   55  A    between atoms: _132  and  _133
REMARK   56  A    between atoms: _132  and  _135
REMARK   57  A    between atoms: _135  and  _136
REMARK   58  A    between atoms: _136  and  _137
REMARK   59  A    between atoms: _137  and  _138
REMARK   60  A    between atoms: _138  and  _139
REMARK   61  A    between atoms: _143  and  _145
REMARK   62  A    between atoms: _145  and  _146
REMARK   63  A    between atoms: _145  and  _148
REMARK   64  A    between atoms: _148  and  _149
REMARK   65  A    between atoms: _152  and  _154
REMARK   66  A    between atoms: _154  and  _155
REMARK   67  A    between atoms: _154  and  _157
REMARK   68  A    between atoms: _157  and  _158
REMARK   69  A    between atoms: _163  and  _165
REMARK   70  A    between atoms: _165  and  _166
REMARK   71  A    between atoms: _165  and  _168
REMARK   72  A    between atoms: _168  and  _169
REMARK   73  A    between atoms: _172  and  _174
REMARK   74  A    between atoms: _174  and  _175
REMARK   75  A    between atoms: _174  and  _177
REMARK   76  A    between atoms: _177  and  _178
REMARK   77  A    between atoms: _181  and  _183
REMARK   78  A    between atoms: _183  and  _184
REMARK   79  A    between atoms: _183  and  _186
REMARK   80  A    between atoms: _186  and  _187
REMARK   81  A    between atoms: _187  and  _188
REMARK   82  A    between atoms: _188  and  _189
REMARK   83  A    between atoms: _189  and  _190
REMARK   84  A    between atoms: _194  and  _196
REMARK   85  A    between atoms: _196  and  _197
REMARK   86  A    between atoms: _196  and  _199
REMARK   87  A    between atoms: _199  and  _200
REMARK   88  A    between atoms: _203  and  _205
REMARK   89  A    between atoms: _205  and  _206
REMARK   90  A    between atoms: _205  and  _208
REMARK   91  A    between atoms: _208  and  _209
REMARK   92  A    between atoms: _212  and  _214
REMARK   93  A    between atoms: _214  and  _215
REMARK   94  A    between atoms: _214  and  _217
REMARK   95  A    between atoms: _217  and  _218
REMARK   96  A    between atoms: _220  and  _222
REMARK   97  A    between atoms: _222  and  _223
REMARK   98  A    between atoms: _222  and  _225
REMARK   99  A    between atoms: _225  and  _226
REMARK  100  A    between atoms: _226  and  _227
REMARK  101  A    between atoms: _230  and  _232
REMARK  102  A    between atoms: _232  and  _233
REMARK  103  A    between atoms: _232  and  _235
REMARK  104  A    between atoms: _235  and  _236
REMARK  105  A    between atoms: _239  and  _241
REMARK  106  A    between atoms: _241  and  _242
REMARK  107  A    between atoms: _241  and  _244
REMARK  108  A    between atoms: _248  and  _249
REMARK  109  A    between atoms: _254  and  _256
REMARK  110  A    between atoms: _256  and  _257
REMARK  111  A    between atoms: _256  and  _259
REMARK  112  A    between atoms: _259  and  _260
REMARK  113  A    between atoms: _263  and  _265
REMARK  114  A    between atoms: _265  and  _266
REMARK  115  A    between atoms: _269  and  _271
REMARK  116  A    between atoms: _271  and  _272
REMARK  117  A    between atoms: _271  and  _274
REMARK  118  A    between atoms: _274  and  _275
REMARK  119  A    between atoms: _278  and  _280
REMARK  120  A    between atoms: _280  and  _281
REMARK  121  A    between atoms: _284  and  _286
REMARK  122  A    between atoms: _286  and  _287
REMARK  123  A    between atoms: _286  and  _289
REMARK  124  A    between atoms: _292  and  _294
REMARK  125  A    between atoms: _294  and  _295
REMARK  126  A    between atoms: _294  and  _297
REMARK  127  A    between atoms: _297  and  _298
REMARK  128  A    between atoms: _298  and  _299
REMARK  129  A    between atoms: _302  and  _304
REMARK  130  A    between atoms: _304  and  _305
REMARK  131  A    between atoms: _304  and  _307
REMARK  132  A    between atoms: _307  and  _308
REMARK  133  A    between atoms: _308  and  _309
REMARK  134  A    between atoms: _309  and  _310
REMARK  135  A    between atoms: _319  and  _321
REMARK  136  A    between atoms: _321  and  _322
REMARK  137  A    between atoms: _321  and  _324
REMARK  138  A    between atoms: _324  and  _325
REMARK  139  A    between atoms: _331  and  _333
REMARK  140  A    between atoms: _333  and  _334
REMARK  141  A    between atoms: _333  and  _336
REMARK  142  A    between atoms: _336  and  _337
REMARK  143  A    between atoms: _340  and  _342
REMARK  144  A    between atoms: _342  and  _343
REMARK  145  A    between atoms: _342  and  _345
REMARK  146  A    between atoms: _345  and  _346
REMARK  147  A    between atoms: _346  and  _347
REMARK  148  A    between atoms: _347  and  _348
REMARK  149  A    between atoms: _357  and  _359
REMARK  150  A    between atoms: _359  and  _360
REMARK  151  A    between atoms: _359  and  _362
REMARK  152  A    between atoms: _362  and  _363
REMARK  153  A    between atoms: _366  and  _368
REMARK  154  A    between atoms: _368  and  _369
REMARK  155  A    between atoms: _368  and  _371
REMARK  156  A    between atoms: _371  and  _372
REMARK  157  A    between atoms: _372  and  _373
REMARK  158  A    between atoms: _378  and  _380
REMARK  159  A    between atoms: _380  and  _381
REMARK  160  A    between atoms: _380  and  _383
REMARK  161  A    between atoms: _383  and  _384
REMARK  162  A    between atoms: _384  and  _385
REMARK  163  A    between atoms: _388  and  _390
REMARK  164  A    between atoms: _390  and  _391
REMARK  165  A    between atoms: _390  and  _393
REMARK  166  A    between atoms: _393  and  _394
REMARK  167  A    between atoms: _397  and  _399
REMARK  168  A    between atoms: _399  and  _400
REMARK  169  A    between atoms: _399  and  _402
REMARK  170  A    between atoms: _402  and  _403
REMARK  171  A    between atoms: _403  and  _404
REMARK  172  A    between atoms: _406  and  _408
REMARK  173  A    between atoms: _408  and  _409
REMARK  174  A    between atoms: _408  and  _411
REMARK  175  A    between atoms: _413  and  _415
REMARK  176  A    between atoms: _415  and  _416
REMARK  177  A    between atoms: _415  and  _418
REMARK  178  A    between atoms: _418  and  _419
REMARK  179  A    between atoms: _419  and  _420
REMARK  180  A    between atoms: _425  and  _427
REMARK  181  A    between atoms: _427  and  _428
REMARK  182  A    between atoms: _427  and  _430
REMARK  183  A    between atoms: _430  and  _431
REMARK  184  A    between atoms: _431  and  _432
REMARK  185  A    between atoms: _432  and  _433
REMARK  186  A    between atoms: _433  and  _434
REMARK  187  A    between atoms: _438  and  _440
REMARK  188  A    between atoms: _440  and  _441
REMARK  189  A    between atoms: _440  and  _443
REMARK  190  A    between atoms: _443  and  _444
REMARK  191  A    between atoms: _449  and  _450
REMARK  192  A    between atoms: _452  and  _454
REMARK  193  A    between atoms: _454  and  _455
REMARK  194  A    between atoms: _454  and  _457
REMARK  195  A    between atoms: _457  and  _458
REMARK  196  A    between atoms: _458  and  _459
REMARK  197  A    between atoms: _464  and  _466
REMARK  198  A    between atoms: _466  and  _467
REMARK  199  A    between atoms: _469  and  _471
REMARK  200  A    between atoms: _471  and  _472
REMARK  201  A    between atoms: _471  and  _474
REMARK  202  A    between atoms: _474  and  _475
REMARK  203  A    between atoms: _480  and  _482
REMARK  204  A    between atoms: _482  and  _483
REMARK  205  A    between atoms: _486  and  _488
REMARK  206  A    between atoms: _488  and  _489
REMARK  207  A    between atoms: _488  and  _491
REMARK  208  A    between atoms: _491  and  _492
REMARK  209  A    between atoms: _492  and  _493
REMARK  210  A    between atoms: _493  and  _494
REMARK  211  A    between atoms: _494  and  _495
REMARK  212  A    between atoms: _499  and  _501
REMARK  213  A    between atoms: _501  and  _502
REMARK  214  A    between atoms: _501  and  _504
REMARK  215  A    between atoms: _504  and  _505
REMARK  216  A    between atoms: _505  and  _506
REMARK  217  A    between atoms: _505  and  _507
REMARK  218  A    between atoms: _506  and  MG_619
REMARK  219  A    between atoms: _510  and  _512
REMARK  220  A    between atoms: _512  and  _513
REMARK  221  A    between atoms: _512  and  _515
REMARK  222  A    between atoms: _515  and  _516
REMARK  223  A    between atoms: _522  and  _524
REMARK  224  A    between atoms: _524  and  _525
REMARK  225  A    between atoms: _524  and  _527
REMARK  226  A    between atoms: _527  and  _528
REMARK  227  A    between atoms: _530  and  _532
REMARK  228  A    between atoms: _532  and  _533
REMARK  229  A    between atoms: _532  and  _535
REMARK  230  A    between atoms: _538  and  _540
REMARK  231  A    between atoms: _540  and  _541
REMARK  232  A    between atoms: _540  and  _543
REMARK  233  A    between atoms: _543  and  _544
REMARK  234  A    between atoms: _550  and  _552
REMARK  235  A    between atoms: _552  and  _553
REMARK  236  A    between atoms: _552  and  _555
REMARK  237  A    between atoms: _555  and  _556
REMARK  238  A    between atoms: _560  and  _561
REMARK  239  A    between atoms: _566  and  _568
REMARK  240  A    between atoms: _568  and  _569
REMARK  241  A    between atoms: _568  and  _571
REMARK  242  A    between atoms: _571  and  _572
REMARK  243  A    between atoms: _578  and  _580
REMARK  244  A    between atoms: _580  and  _581
REMARK  245  A    between atoms: _580  and  _583
REMARK  246  A    between atoms: _583  and  _584
REMARK  247  A    between atoms: _589  and  _590
REMARK  248  A    between atoms: _592  and  _594
REMARK  249  A    between atoms: _594  and  _595
REMARK  250  A    between atoms: _594  and  _597
REMARK  251  A    between atoms: _597  and  _598
REMARK  252  A    between atoms: _598  and  _599
REMARK  253  A    between atoms: _601  and  _603
REMARK  254  A    between atoms: _603  and  _604
REMARK  255  A    between atoms: _603  and  _606
REMARK  256  A    between atoms: _606  and  _607
REMARK  257  A    between atoms: _610  and  _612
REMARK  258  A    between atoms: _612  and  _613
REMARK  259  A    between atoms: _612  and  _615
REMARK  260  A    between atoms: _615  and  _616
REMARK                            x       y       z     vdW  Elec       q    Type
REMARK                         _______ _______ _______ _____ _____    ______ ____
ROOT
ATOM      1  C   LYS A   1     -10.881   5.858  43.182  0.00  0.00    +0.238 C 
ATOM      2  O   LYS A   1     -11.645   5.532  44.086  0.00  0.00    -0.274 OA
ATOM      3  N   TYR A   2     -11.208   6.783  42.282  0.00  0.00    -0.298 N 
ATOM      4  H   TYR A   2     -10.515   7.065  41.560  0.00  0.00    +0.150 HD
ENDROOT
BRANCH   1   5
ATOM      5  CA  LYS A   1      -9.492   5.208  43.066  0.00  0.00    +0.145 C 
BRANCH   5   6
ATOM      6  N   LYS A   1      -9.058   5.040  41.669  0.00  0.00    -0.238 NA
ATOM      7  H   LYS A   1      -8.174   5.484  41.347  0.00  0.00    +0.142 HD
ENDBRANCH   5   6
BRANCH   5   8
ATOM      8  CB  LYS A   1      -8.439   6.000  43.880  0.00  0.00    +0.026 C 
BRANCH   8   9
ATOM      9  CG  LYS A   1      -8.078   7.357  43.373  0.00  0.00    -0.000 C 
BRANCH   9  10
ATOM     10  CD  LYS A   1      -6.981   7.936  44.258  0.00  0.00    -0.024 C 
BRANCH  10  11
ATOM     11  CE  LYS A   1      -6.503   9.298  43.770  0.00  0.00    -0.086 C 
BRANCH  11  12
ATOM     12  NZ  LYS A   1      -5.545   9.169  42.624  0.00  0.00    +0.380 N 
ATOM     13  HZ1 LYS A   1      -4.716   8.619  42.927  0.00  0.00    -0.089 HD
ATOM     14  HZ2 LYS A   1      -5.242  10.116  42.319  0.00  0.00    -0.089 HD
ATOM     15  HZ3 LYS A   1      -6.015   8.683  41.834  0.00  0.00    -0.089 HD
ENDBRANCH  11  12
ENDBRANCH  10  11
ENDBRANCH   9  10
ENDBRANCH   8   9
ENDBRANCH   5   8
ENDBRANCH   1   5
BRANCH   3  16
ATOM     16  CA  TYR A   2     -12.530   7.406  42.297  0.00  0.00    +0.141 C 
BRANCH  16  17
ATOM     17  C   TYR A   2     -13.608   6.528  41.643  0.00  0.00    +0.227 C 
ATOM     18  O   TYR A   2     -13.373   5.904  40.620  0.00  0.00    -0.286 OA
ENDBRANCH  16  17
BRANCH  16  19
ATOM     19  CB  TYR A   2     -12.516   8.761  41.570  0.00  0.00    +0.054 C 
BRANCH  19  20
ATOM     20  CG  TYR A   2     -11.976   9.873  42.437  0.00  0.00    -0.020 A 
ATOM     21  CD2 TYR A   2     -12.802  10.529  43.337  0.00  0.00    -0.001 A 
ATOM     22  CE2 TYR A   2     -12.303  11.531  44.181  0.00  0.00    +0.036 A 
ATOM     23  CZ  TYR A   2     -10.969  11.871  44.109  0.00  0.00    +0.134 A 
ATOM     24  CE1 TYR A   2     -10.126  11.237  43.214  0.00  0.00    +0.036 A 
ATOM     25  CD1 TYR A   2     -10.634  10.234  42.378  0.00  0.00    -0.001 A 
BRANCH  23  26
ATOM     26  OH  TYR A   2     -10.481  12.853  44.952  0.00  0.00    -0.506 OA
ATOM     27  HH  TYR A   2      -9.514  12.982  44.781  0.00  0.00    +0.292 HD
ENDBRANCH  23  26
ENDBRANCH  19  20
ENDBRANCH  16  19
ENDBRANCH   3  16
TORSDOF 12
REMARK  Name = ../refined-set-2016/3dnt/3dnt_pocket.pdb
REMARK  260 active torsions:
REMARK  status: ('A' for Active; 'I' for Inactive)
REMARK    1  A    between atoms: _1  and  _3
REMARK    2  A    between atoms: _3  and  _4
REMARK    3  A    between atoms: _3  and  _6
REMARK    4  A    between atoms: _6  and  _7
REMARK    5  A    between atoms: _12  and  _14
REMARK    6  A    between atoms: _14  and  _15
REMARK    7  A    between atoms: _14  and  _17
REMARK    8  A    between atoms: _17  and  _18
REMARK    9  A    between atoms: _21  and  _23
REMARK   10  A    between atoms: _23  and  _24
REMARK   11  A    between atoms: _23  and  _26
REMARK   12  A    between atoms: _26  and  _27
REMARK   13  A    between atoms: _31  and  _32
REMARK   14  A    between atoms: _37  and  _39
REMARK   15  A    between atoms: _39  and  _40
REMARK   16  A    between atoms: _39  and  _42
REMARK   17  A    between atoms: _42  and  _43
REMARK   18  A    between atoms: _46  and  _48
REMARK   19  A    between atoms: _48  and  _49
REMARK   20  A    between atoms: _48  and  _51
REMARK   21  A    between atoms: _51  and  _52
REMARK   22  A    between atoms: _54  and  _56
REMARK   23  A    between atoms: _56  and  _57
REMARK   24  A    between atoms: _56  and  _59
REMARK   25  A    between atoms: _59  and  _60
REMARK   26  A    between atoms: _62  and  _64
REMARK   27  A    between atoms: _64  and  _65
REMARK   28  A    between atoms: _64  and  _67
REMARK   29  A    between atoms: _70  and  _72
REMARK   30  A    between atoms: _72  and  _73
REMARK   31  A    between atoms: _75  and  _77
REMARK   32  A    between atoms: _77  and  _78
REMARK   33  A    between atoms: _77  and  _80
REMARK   34  A    between atoms: _80  and  _81
REMARK   35  A    between atoms: _83  and  _85
REMARK   36  A    between atoms: _85  and  _86
REMARK   37  A    between atoms: _85  and  _88
REMARK   38  A    between atoms: _91  and  _93
REMARK   39  A    between atoms: _93  and  _94
REMARK   40  A    between atoms: _97  and  _99
REMARK   41  A    between atoms: _99  and  _100
REMARK   42  A    between atoms: _102  and  _104
REMARK   43  A    between atoms: _104  and  _105
REMARK   44  A    between atoms: _108  and  _110
REMARK   45  A    between atoms: _110  and  _111
REMARK   46  A    between atoms: _110  and  _113
REMARK   47  A    between atoms: _113  and  _114
REMARK   48  A    between atoms: _114  and  _115
REMARK   49  A    between atoms: _120  and  _122
REMARK   50  A    between atoms: _122  and  _123
REMARK   51  A    between atoms: _122  and  _125
REMARK   52  A    between atoms: _125  and  _126
REMARK   53  A    between atoms: _126  and  _127
REMARK   54  A    between atoms: _130  and  _132
REMARK   55  A    between atoms: _132  and  _133
REMARK   56  A    between atoms: _132  and  _135
REMARK   57  A    between atoms: _135  and  _136
REMARK   58  A    between atoms: _136  and  _137
REMARK   59  A    between atoms: _137  and  _138
REMARK   60  A    between atoms: _138  and  _139
REMARK   61  A    between atoms: _143  and  _145
REMARK   62  A    between atoms: _145  and  _146
REMARK   63  A    between atoms: _145  and  _148
REMARK   64  A    between atoms: _148  and  _149
REMARK   65  A    between atoms: _152  and  _154
REMARK   66  A    between atoms: _154  and  _155
REMARK   67  A    between atoms: _154  and  _157
REMARK   68  A    between atoms: _157  and  _158
REMARK   69  A    between atoms: _163  and  _165
REMARK   70  A    between atoms: _165  and  _166
REMARK   71  A    between atoms: _165  and  _168
REMARK   72  A    between atoms: _168  and  _169
REMARK   73  A    between atoms: _172  and  _174
REMARK   74  A    between atoms: _174  and  _175
REMARK   75  A    between atoms: _174  and  _177
REMARK   76  A    between atoms: _177  and  _178
REMARK   77  A    between atoms: _181  and  _183
REMARK   78  A    between atoms: _183  and  _184
REMARK   79  A    between atoms: _183  and  _186
REMARK   80  A    between atoms: _186  and  _187
REMARK   81  A    between atoms: _187  and  _188
REMARK   82  A    between atoms: _188  and  _189
REMARK   83  A    between atoms: _189  and  _190
REMARK   84  A    between atoms: _194  and  _196
REMARK   85  A    between atoms: _196  and  _197
REMARK   86  A    between atoms: _196  and  _199
REMARK   87  A    between atoms: _199  and  _200
REMARK   88  A    between atoms: _203  and  _205
REMARK   89  A    between atoms: _205  and  _206
REMARK   90  A    between atoms: _205  and  _208
REMARK   91  A    between atoms: _208  and  _209
REMARK   92  A    between atoms: _212  and  _214
REMARK   93  A    between atoms: _214  and  _215
REMARK   94  A    between atoms: _214  and  _217
REMARK   95  A    between atoms: _217  and  _218
REMARK   96  A    between atoms: _220  and  _222
REMARK   97  A    between atoms: _222  and  _223
REMARK   98  A    between atoms: _222  and  _225
REMARK   99  A    between atoms: _225  and  _226
REMARK  100  A    between atoms: _226  and  _227
REMARK  101  A    between atoms: _230  and  _232
REMARK  102  A    between atoms: _232  and  _233
REMARK  103  A    between atoms: _232  and  _235
REMARK  104  A    between atoms: _235  and  _236
REMARK  105  A    between atoms: _239  and  _241
REMARK  106  A    between atoms: _241  and  _242
REMARK  107  A    between atoms: _241  and  _244
REMARK  108  A    between atoms: _248  and  _249
REMARK  109  A    between atoms: _254  and  _256
REMARK  110  A    between atoms: _256  and  _257
REMARK  111  A    between atoms: _256  and  _259
REMARK  112  A    between atoms: _259  and  _260
REMARK  113  A    between atoms: _263  and  _265
REMARK  114  A    between atoms: _265  and  _266
REMARK  115  A    between atoms: _269  and  _271
REMARK  116  A    between atoms: _271  and  _272
REMARK  117  A    between atoms: _271  and  _274
REMARK  118  A    between atoms: _274  and  _275
REMARK  119  A    between atoms: _278  and  _280
REMARK  120  A    between atoms: _280  and  _281
REMARK  121  A    between atoms: _284  and  _286
REMARK  122  A    between atoms: _286  and  _287
REMARK  123  A    between atoms: _286  and  _289
REMARK  124  A    between atoms: _292  and  _294
REMARK  125  A    between atoms: _294  and  _295
REMARK  126  A    between atoms: _294  and  _297
REMARK  127  A    between atoms: _297  and  _298
REMARK  128  A    between atoms: _298  and  _299
REMARK  129  A    between atoms: _302  and  _304
REMARK  130  A    between atoms: _304  and  _305
REMARK  131  A    between atoms: _304  and  _307
REMARK  132  A    between atoms: _307  and  _308
REMARK  133  A    between atoms: _308  and  _309
REMARK  134  A    between atoms: _309  and  _310
REMARK  135  A    between atoms: _319  and  _321
REMARK  136  A    between atoms: _321  and  _322
REMARK  137  A    between atoms: _321  and  _324
REMARK  138  A    between atoms: _324  and  _325
REMARK  139  A    between atoms: _331  and  _333
REMARK  140  A    between atoms: _333  and  _334
REMARK  141  A    between atoms: _333  and  _336
REMARK  142  A    between atoms: _336  and  _337
REMARK  143  A    between atoms: _340  and  _342
REMARK  144  A    between atoms: _342  and  _343
REMARK  145  A    between atoms: _342  and  _345
REMARK  146  A    between atoms: _345  and  _346
REMARK  147  A    between atoms: _346  and  _347
REMARK  148  A    between atoms: _347  and  _348
REMARK  149  A    between atoms: _357  and  _359
REMARK  150  A    between atoms: _359  and  _360
REMARK  151  A    between atoms: _359  and  _362
REMARK  152  A    between atoms: _362  and  _363
REMARK  153  A    between atoms: _366  and  _368
REMARK  154  A    between atoms: _368  and  _369
REMARK  155  A    between atoms: _368  and  _371
REMARK  156  A    between atoms: _371  and  _372
REMARK  157  A    between atoms: _372  and  _373
REMARK  158  A    between atoms: _378  and  _380
REMARK  159  A    between atoms: _380  and  _381
REMARK  160  A    between atoms: _380  and  _383
REMARK  161  A    between atoms: _383  and  _384
REMARK  162  A    between atoms: _384  and  _385
REMARK  163  A    between atoms: _388  and  _390
REMARK  164  A    between atoms: _390  and  _391
REMARK  165  A    between atoms: _390  and  _393
REMARK  166  A    between atoms: _393  and  _394
REMARK  167  A    between atoms: _397  and  _399
REMARK  168  A    between atoms: _399  and  _400
REMARK  169  A    between atoms: _399  and  _402
REMARK  170  A    between atoms: _402  and  _403
REMARK  171  A    between atoms: _403  and  _404
REMARK  172  A    between atoms: _406  and  _408
REMARK  173  A    between atoms: _408  and  _409
REMARK  174  A    between atoms: _408  and  _411
REMARK  175  A    between atoms: _413  and  _415
REMARK  176  A    between atoms: _415  and  _416
REMARK  177  A    between atoms: _415  and  _418
REMARK  178  A    between atoms: _418  and  _419
REMARK  179  A    between atoms: _419  and  _420
REMARK  180  A    between atoms: _425  and  _427
REMARK  181  A    between atoms: _427  and  _428
REMARK  182  A    between atoms: _427  and  _430
REMARK  183  A    between atoms: _430  and  _431
REMARK  184  A    between atoms: _431  and  _432
REMARK  185  A    between atoms: _432  and  _433
REMARK  186  A    between atoms: _433  and  _434
REMARK  187  A    between atoms: _438  and  _440
REMARK  188  A    between atoms: _440  and  _441
REMARK  189  A    between atoms: _440  and  _443
REMARK  190  A    between atoms: _443  and  _444
REMARK  191  A    between atoms: _449  and  _450
REMARK  192  A    between atoms: _452  and  _454
REMARK  193  A    between atoms: _454  and  _455
REMARK  194  A    between atoms: _454  and  _457
REMARK  195  A    between atoms: _457  and  _458
REMARK  196  A    between atoms: _458  and  _459
REMARK  197  A    between atoms: _464  and  _466
REMARK  198  A    between atoms: _466  and  _467
REMARK  199  A    between atoms: _469  and  _471
REMARK  200  A    between atoms: _471  and  _472
REMARK  201  A    between atoms: _471  and  _474
REMARK  202  A    between atoms: _474  and  _475
REMARK  203  A    between atoms: _480  and  _482
REMARK  204  A    between atoms: _482  and  _483
REMARK  205  A    between atoms: _486  and  _488
REMARK  206  A    between atoms: _488  and  _489
REMARK  207  A    between atoms: _488  and  _491
REMARK  208  A    between atoms: _491  and  _492
REMARK  209  A    between atoms: _492  and  _493
REMARK  210  A    between atoms: _493  and  _494
REMARK  211  A    between atoms: _494  and  _495
REMARK  212  A    between atoms: _499  and  _501
REMARK  213  A    between atoms: _501  and  _502
REMARK  214  A    between atoms: _501  and  _504
REMARK  215  A    between atoms: _504  and  _505
REMARK  216  A    between atoms: _505  and  _506
REMARK  217  A    between atoms: _505  and  _507
REMARK  218  A    between atoms: _506  and  MG_619
REMARK  219  A    between atoms: _510  and  _512
REMARK  220  A    between atoms: _512  and  _513
REMARK  221  A    between atoms: _512  and  _515
REMARK  222  A    between atoms: _515  and  _516
REMARK  223  A    between atoms: _522  and  _524
REMARK  224  A    between atoms: _524  and  _525
REMARK  225  A    between atoms: _524  and  _527
REMARK  226  A    between atoms: _527  and  _528
REMARK  227  A    between atoms: _530  and  _532
REMARK  228  A    between atoms: _532  and  _533
REMARK  229  A    between atoms: _532  and  _535
REMARK  230  A    between atoms: _538  and  _540
REMARK  231  A    between atoms: _540  and  _541
REMARK  232  A    between atoms: _540  and  _543
REMARK  233  A    between atoms: _543  and  _544
REMARK  234  A    between atoms: _550  and  _552
REMARK  235  A    between atoms: _552  and  _553
REMARK  236  A    between atoms: _552  and  _555
REMARK  237  A    between atoms: _555  and  _556
REMARK  238  A    between atoms: _560  and  _561
REMARK  239  A    between atoms: _566  and  _568
REMARK  240  A    between atoms: _568  and  _569
REMARK  241  A    between atoms: _568  and  _571
REMARK  242  A    between atoms: _571  and  _572
REMARK  243  A    between atoms: _578  and  _580
REMARK  244  A    between atoms: _580  and  _581
REMARK  245  A    between atoms: _580  and  _583
REMARK  246  A    between atoms: _583  and  _584
REMARK  247  A    between atoms: _589  and  _590
REMARK  248  A    between atoms: _592  and  _594
REMARK  249  A    between atoms: _594  and  _595
REMARK  250  A    between atoms: _594  and  _597
REMARK  251  A    between atoms: _597  and  _598
REMARK  252  A    between atoms: _598  and  _599
REMARK  253  A    between atoms: _601  and  _603
REMARK  254  A    between atoms: _603  and  _604
REMARK  255  A    between atoms: _603  and  _606
REMARK  256  A    between atoms: _606  and  _607
REMARK  257  A    between atoms: _610  and  _612
REMARK  258  A    between atoms: _612  and  _613
REMARK  259  A    between atoms: _612  and  _615
REMARK  260  A    between atoms: _615  and  _616
REMARK                            x       y       z     vdW  Elec       q    Type
REMARK                         _______ _______ _______ _____ _____    ______ ____
ROOT
ATOM      1  C   UNK A   6      -8.759   6.851  51.658  0.00  0.00    +0.000 C 
ENDROOT
BRANCH   1   4
ATOM      2  C   LYS A   5      -7.499   5.535  50.076  0.00  0.00    +0.000 C 
ATOM      3  O   LYS A   5      -6.535   5.454  50.857  0.00  0.00    +0.000 OA
ATOM      4  N   UNK A   6      -8.615   6.205  50.359  0.00  0.00    +0.000 N 
ATOM      5  H   UNK A   6      -9.380   6.267  49.657  0.00  0.00    +0.000 HD
BRANCH   2   6
ATOM      6  CA  LYS A   5      -7.447   4.860  48.709  0.00  0.00    +0.000 C 
BRANCH   6   9
ATOM      7  C   ALA A   4      -9.681   4.124  48.271  0.00  0.00    +0.000 C 
ATOM      8  O   ALA A   4      -9.558   3.277  49.150  0.00  0.00    +0.000 OA
ATOM      9  N   LYS A   5      -8.702   4.981  47.974  0.00  0.00    +0.000 N 
ATOM     10  H   LYS A   5      -8.829   5.710  47.244  0.00  0.00    +0.000 HD
BRANCH   7  11
ATOM     11  CA  ALA A   4     -10.988   4.209  47.508  0.00  0.00    +0.000 C 
ATOM     12  CB  ALA A   4     -10.948   3.268  46.336  0.00  0.00    +0.000 C 
BRANCH  11  15
ATOM     13  C   HIS A   3     -11.543   6.543  47.886  0.00  0.00    +0.000 C 
ATOM     14  O   HIS A   3     -11.270   6.460  49.080  0.00  0.00    +0.000 OA
ATOM     15  N   ALA A   4     -11.399   5.528  47.045  0.00  0.00    +0.000 N 
ATOM     16  H   ALA A   4     -11.584   5.677  46.032  0.00  0.00    +0.000 HD
BRANCH  13  17
ATOM     17  CA  HIS A   3     -12.065   7.849  47.284  0.00  0.00    +0.000 C 
BRANCH  17  20
ATOM     18  C   GLY A   2     -13.228   8.979  49.112  0.00  0.00    +0.000 C 
ATOM     19  O   GLY A   2     -14.175   8.171  49.077  0.00  0.00    +0.000 OA
ATOM     20  N   HIS A   3     -12.182   8.900  48.293  0.00  0.00    +0.000 N 
ATOM     21  H   HIS A   3     -11.424   9.608  48.373  0.00  0.00    +0.000 HD
BRANCH  18  22
ATOM     22  CA  GLY A   2     -13.207  10.132  50.113  0.00  0.00    +0.000 C 
BRANCH  22  24
ATOM     23  C   GLN A   1     -11.925  11.900  49.061  0.00  0.00    +0.000 C 
ATOM     24  N   GLY A   2     -13.105  11.426  49.437  0.00  0.00    +0.000 N 
ATOM     25  H   GLY A   2     -13.966  11.979  49.250  0.00  0.00    +0.000 HD
ATOM     26  O   GLN A   1     -10.871  11.294  49.259  0.00  0.00    +0.000 OA
BRANCH  23  27
ATOM     27  CA  GLN A   1     -11.930  13.242  48.332  0.00  0.00    +0.000 C 
BRANCH  27  28
ATOM     28  N   GLN A   1     -12.955  14.187  48.779  0.00  0.00    +0.000 NA
ATOM     29  H   GLN A   1     -12.903  14.594  49.734  0.00  0.00    +0.000 HD
ENDBRANCH  27  28
BRANCH  27  30
ATOM     30  CB  GLN A   1     -10.545  13.880  48.443  0.00  0.00    +0.000 C 
BRANCH  30  31
ATOM     31  CG  GLN A   1     -10.400  15.201  47.716  0.00  0.00    +0.000 C 
BRANCH  31  32
ATOM     32  CD  GLN A   1      -9.064  15.853  48.018  0.00  0.00    +0.000 C 
ATOM     33  NE2 GLN A   1      -9.090  16.889  48.851  0.00  0.00    +0.000 N 
ATOM     34 HE21 GLN A   1      -9.995  17.219  49.243  0.00  0.00    +0.000 HD
ATOM     35 HE22 GLN A   1      -8.205  17.370  49.111  0.00  0.00    +0.000 HD
ATOM     36  OE1 GLN A   1      -8.019  15.421  47.525  0.00  0.00    +0.000 OA
ENDBRANCH  31  32
ENDBRANCH  30  31
ENDBRANCH  27  30
ENDBRANCH  23  27
ENDBRANCH  22  24
ENDBRANCH  18  22
ENDBRANCH  17  20
BRANCH  17  37
ATOM     37  CB  HIS A   3     -11.140   8.311  46.145  0.00  0.00    +0.000 C 
BRANCH  37  38
ATOM     38  CG  HIS A   3      -9.806   8.795  46.616  0.00  0.00    +0.000 A 
ATOM     39  ND1 HIS A   3      -8.886   7.968  47.225  0.00  0.00    +0.000 NA
ATOM     40  CE1 HIS A   3      -7.827   8.677  47.579  0.00  0.00    +0.000 A 
ATOM     41  NE2 HIS A   3      -8.027   9.934  47.220  0.00  0.00    +0.000 NA
ATOM     42  CD2 HIS A   3      -9.256  10.034  46.616  0.00  0.00    +0.000 A 
ENDBRANCH  37  38
ENDBRANCH  17  37
ENDBRANCH  13  17
ENDBRANCH  11  15
ENDBRANCH   7  11
ENDBRANCH   6   9
BRANCH   6  43
ATOM     43  CB  LYS A   5      -6.271   5.395  47.887  0.00  0.00    +0.000 C 
BRANCH  43  44
ATOM     44  CG  LYS A   5      -5.885   4.457  46.764  0.00  0.00    +0.000 C 
BRANCH  44  45
ATOM     45  CD  LYS A   5      -4.730   4.987  45.945  0.00  0.00    +0.000 C 
BRANCH  45  46
ATOM     46  CE  LYS A   5      -3.415   5.041  46.705  0.00  0.00    +0.000 C 
BRANCH  46  47
ATOM     47  NZ  LYS A   5      -2.796   3.700  46.896  0.00  0.00    +0.000 N 
ATOM     48  HZ1 LYS A   5      -3.447   3.092  47.434  0.00  0.00    +0.000 HD
ATOM     49  HZ2 LYS A   5      -1.904   3.803  47.420  0.00  0.00    +0.000 HD
ATOM     50  HZ3 LYS A   5      -2.607   3.271  45.967  0.00  0.00    +0.000 HD
ENDBRANCH  46  47
ENDBRANCH  45  46
ENDBRANCH  44  45
ENDBRANCH  43  44
ENDBRANCH   6  43
ENDBRANCH   2   6
ENDBRANCH   1   4
BRANCH   1  51
ATOM     51  C   UNK A   6      -9.469   5.967  52.676  0.00  0.00    +0.000 C 
ATOM     52  O   UNK A   6      -9.880   6.445  53.739  0.00  0.00    +0.000 OA
ATOM     53  N   PHE A   7      -9.631   4.684  52.326  0.00  0.00    +0.000 N 
ATOM     54  H   PHE A   7      -9.370   4.384  51.365  0.00  0.00    +0.000 HD
BRANCH  53  55
ATOM     55  CA  PHE A   7     -10.172   3.682  53.273  0.00  0.00    +0.000 C 
BRANCH  55  56
ATOM     56  C   PHE A   7      -9.244   2.476  53.240  0.00  0.00    +0.000 C 
ATOM     57  N   SER A   8      -8.945   1.919  54.424  0.00  0.00    +0.000 N 
ATOM     58  H   SER A   8      -9.344   2.321  55.296  0.00  0.00    +0.000 HD
ATOM     59  O   PHE A   7      -8.799   2.074  52.149  0.00  0.00    +0.000 OA
BRANCH  57  60
ATOM     60  CA  SER A   8      -8.067   0.757  54.503  0.00  0.00    +0.000 C 
BRANCH  60  61
ATOM     61  C   SER A   8      -8.540  -0.253  55.528  0.00  0.00    +0.000 C 
ATOM     62  O   SER A   8      -9.434   0.006  56.328  0.00  0.00    +0.000 OA
ATOM     63  N   VAL A   9      -7.935  -1.426  55.436  0.00  0.00    +0.000 N 
ATOM     64  H   VAL A   9      -7.251  -1.586  54.669  0.00  0.00    +0.000 HD
BRANCH  63  65
ATOM     65  CA  VAL A   9      -8.205  -2.500  56.386  0.00  0.00    +0.000 C 
BRANCH  65  66
ATOM     66  C   VAL A   9      -6.883  -3.045  56.880  0.00  0.00    +0.000 C 
ATOM     67  N   PHE A  10      -6.908  -3.530  58.110  0.00  0.00    +0.000 N 
ATOM     68  H   PHE A  10      -7.776  -3.436  58.675  0.00  0.00    +0.000 HD
ATOM     69  O   VAL A   9      -5.841  -2.994  56.183  0.00  0.00    +0.000 OA
BRANCH  67  70
ATOM     70  CA  PHE A  10      -5.741  -4.198  58.696  0.00  0.00    +0.000 C 
BRANCH  70  71
ATOM     71  C   PHE A  10      -5.858  -5.655  58.242  0.00  0.00    +0.000 C 
ATOM     72  O   PHE A  10      -6.973  -6.186  58.189  0.00  0.00    +0.000 OA
ENDBRANCH  70  71
BRANCH  70  73
ATOM     73  CB  PHE A  10      -5.848  -4.195  60.204  0.00  0.00    +0.000 C 
BRANCH  73  74
ATOM     74  CG  PHE A  10      -5.649  -2.858  60.820  0.00  0.00    +0.000 A 
ATOM     75  CD2 PHE A  10      -6.662  -2.261  61.567  0.00  0.00    +0.000 A 
ATOM     76  CE2 PHE A  10      -6.458  -1.028  62.190  0.00  0.00    +0.000 A 
ATOM     77  CZ  PHE A  10      -5.218  -0.390  62.055  0.00  0.00    +0.000 A 
ATOM     78  CE1 PHE A  10      -4.204  -0.986  61.309  0.00  0.00    +0.000 A 
ATOM     79  CD1 PHE A  10      -4.419  -2.216  60.691  0.00  0.00    +0.000 A 
ENDBRANCH  73  74
ENDBRANCH  70  73
ENDBRANCH  67  70
ENDBRANCH  65  66
BRANCH  65  80
ATOM     80  CB  VAL A   9      -9.009  -3.715  55.752  0.00  0.00    +0.000 C 
ATOM     81  CG2 VAL A   9     -10.429  -3.275  55.378  0.00  0.00    +0.000 C 
ATOM     82  CG1 VAL A   9      -8.273  -4.332  54.527  0.00  0.00    +0.000 C 
ENDBRANCH  65  80
ENDBRANCH  63  65
ENDBRANCH  60  61
BRANCH  60  83
ATOM     83  CB  SER A   8      -6.626   1.156  54.862  0.00  0.00    +0.000 C 
BRANCH  83  84
ATOM     84  OG  SER A   8      -6.079   1.996  53.870  0.00  0.00    +0.000 OA
ATOM     85  H   SER A   8      -6.629   2.816  53.793  0.00  0.00    +0.000 HD
ENDBRANCH  83  84
ENDBRANCH  60  83
ENDBRANCH  57  60
ENDBRANCH  55  56
BRANCH  55  86
ATOM     86  CB  PHE A   7     -11.593   3.249  52.901  0.00  0.00    +0.000 C 
BRANCH  86  87
ATOM     87  CG  PHE A   7     -12.591   4.372  52.975  0.00  0.00    +0.000 A 
ATOM     88  CD2 PHE A   7     -13.093   4.782  54.208  0.00  0.00    +0.000 A 
ATOM     89  CE2 PHE A   7     -13.954   5.876  54.309  0.00  0.00    +0.000 A 
ATOM     90  CZ  PHE A   7     -14.330   6.585  53.157  0.00  0.00    +0.000 A 
ATOM     91  CE1 PHE A   7     -13.823   6.166  51.906  0.00  0.00    +0.000 A 
ATOM     92  CD1 PHE A   7     -12.960   5.062  51.832  0.00  0.00    +0.000 A 
ENDBRANCH  86  87
ENDBRANCH  55  86
ENDBRANCH  53  55
ENDBRANCH   1  51
BRANCH   1  93
ATOM     93  C   UNK A   6      -9.413   8.250  51.500  0.00  0.00    +0.000 C 
BRANCH  93  94
ATOM     94  C   UNK A   6      -8.366   9.317  51.056  0.00  0.00    +0.000 C 
BRANCH  94  95
ATOM     95  N   UNK A   6      -8.814  10.427  50.473  0.00  0.00    +0.000 NA
ATOM     96  H   UNK A   6      -9.835  10.562  50.327  0.00  0.00    +0.000 HD
ATOM     97  H   UNK A   6      -8.143  11.159  50.163  0.00  0.00    +0.000 HD
ENDBRANCH  94  95
BRANCH  94  98
ATOM     98  O   UNK A   6      -7.164   9.117  51.248  0.00  0.00    +0.000 OA
BRANCH  98  99
ATOM     99 MG   UNK A   6      -5.445  10.217  50.477  0.00  0.00    +0.000 Mg
ATOM    100  O   UNK A   6      -4.574   8.432  49.524  0.00  0.00    +0.000 OA
ENDBRANCH  98  99
ENDBRANCH  94  98
ENDBRANCH  93  94
ENDBRANCH   1  93
TORSDOF 42
REMARK  Name = ../refined-set-2016/3dnt/3dnt_pocket.pdb
REMARK  260 active torsions:
REMARK  status: ('A' for Active; 'I' for Inactive)
REMARK    1  A    between atoms: _1  and  _3
REMARK    2  A    between atoms: _3  and  _4
REMARK    3  A    between atoms: _3  and  _6
REMARK    4  A    between atoms: _6  and  _7
REMARK    5  A    between atoms: _12  and  _14
REMARK    6  A    between atoms: _14  and  _15
REMARK    7  A    between atoms: _14  and  _17
REMARK    8  A    between atoms: _17  and  _18
REMARK    9  A    between atoms: _21  and  _23
REMARK   10  A    between atoms: _23  and  _24
REMARK   11  A    between atoms: _23  and  _26
REMARK   12  A    between atoms: _26  and  _27
REMARK   13  A    between atoms: _31  and  _32
REMARK   14  A    between atoms: _37  and  _39
REMARK   15  A    between atoms: _39  and  _40
REMARK   16  A    between atoms: _39  and  _42
REMARK   17  A    between atoms: _42  and  _43
REMARK   18  A    between atoms: _46  and  _48
REMARK   19  A    between atoms: _48  and  _49
REMARK   20  A    between atoms: _48  and  _51
REMARK   21  A    between atoms: _51  and  _52
REMARK   22  A    between atoms: _54  and  _56
REMARK   23  A    between atoms: _56  and  _57
REMARK   24  A    between atoms: _56  and  _59
REMARK   25  A    between atoms: _59  and  _60
REMARK   26  A    between atoms: _62  and  _64
REMARK   27  A    between atoms: _64  and  _65
REMARK   28  A    between atoms: _64  and  _67
REMARK   29  A    between atoms: _70  and  _72
REMARK   30  A    between atoms: _72  and  _73
REMARK   31  A    between atoms: _75  and  _77
REMARK   32  A    between atoms: _77  and  _78
REMARK   33  A    between atoms: _77  and  _80
REMARK   34  A    between atoms: _80  and  _81
REMARK   35  A    between atoms: _83  and  _85
REMARK   36  A    between atoms: _85  and  _86
REMARK   37  A    between atoms: _85  and  _88
REMARK   38  A    between atoms: _91  and  _93
REMARK   39  A    between atoms: _93  and  _94
REMARK   40  A    between atoms: _97  and  _99
REMARK   41  A    between atoms: _99  and  _100
REMARK   42  A    between atoms: _102  and  _104
REMARK   43  A    between atoms: _104  and  _105
REMARK   44  A    between atoms: _108  and  _110
REMARK   45  A    between atoms: _110  and  _111
REMARK   46  A    between atoms: _110  and  _113
REMARK   47  A    between atoms: _113  and  _114
REMARK   48  A    between atoms: _114  and  _115
REMARK   49  A    between atoms: _120  and  _122
REMARK   50  A    between atoms: _122  and  _123
REMARK   51  A    between atoms: _122  and  _125
REMARK   52  A    between atoms: _125  and  _126
REMARK   53  A    between atoms: _126  and  _127
REMARK   54  A    between atoms: _130  and  _132
REMARK   55  A    between atoms: _132  and  _133
REMARK   56  A    between atoms: _132  and  _135
REMARK   57  A    between atoms: _135  and  _136
REMARK   58  A    between atoms: _136  and  _137
REMARK   59  A    between atoms: _137  and  _138
REMARK   60  A    between atoms: _138  and  _139
REMARK   61  A    between atoms: _143  and  _145
REMARK   62  A    between atoms: _145  and  _146
REMARK   63  A    between atoms: _145  and  _148
REMARK   64  A    between atoms: _148  and  _149
REMARK   65  A    between atoms: _152  and  _154
REMARK   66  A    between atoms: _154  and  _155
REMARK   67  A    between atoms: _154  and  _157
REMARK   68  A    between atoms: _157  and  _158
REMARK   69  A    between atoms: _163  and  _165
REMARK   70  A    between atoms: _165  and  _166
REMARK   71  A    between atoms: _165  and  _168
REMARK   72  A    between atoms: _168  and  _169
REMARK   73  A    between atoms: _172  and  _174
REMARK   74  A    between atoms: _174  and  _175
REMARK   75  A    between atoms: _174  and  _177
REMARK   76  A    between atoms: _177  and  _178
REMARK   77  A    between atoms: _181  and  _183
REMARK   78  A    between atoms: _183  and  _184
REMARK   79  A    between atoms: _183  and  _186
REMARK   80  A    between atoms: _186  and  _187
REMARK   81  A    between atoms: _187  and  _188
REMARK   82  A    between atoms: _188  and  _189
REMARK   83  A    between atoms: _189  and  _190
REMARK   84  A    between atoms: _194  and  _196
REMARK   85  A    between atoms: _196  and  _197
REMARK   86  A    between atoms: _196  and  _199
REMARK   87  A    between atoms: _199  and  _200
REMARK   88  A    between atoms: _203  and  _205
REMARK   89  A    between atoms: _205  and  _206
REMARK   90  A    between atoms: _205  and  _208
REMARK   91  A    between atoms: _208  and  _209
REMARK   92  A    between atoms: _212  and  _214
REMARK   93  A    between atoms: _214  and  _215
REMARK   94  A    between atoms: _214  and  _217
REMARK   95  A    between atoms: _217  and  _218
REMARK   96  A    between atoms: _220  and  _222
REMARK   97  A    between atoms: _222  and  _223
REMARK   98  A    between atoms: _222  and  _225
REMARK   99  A    between atoms: _225  and  _226
REMARK  100  A    between atoms: _226  and  _227
REMARK  101  A    between atoms: _230  and  _232
REMARK  102  A    between atoms: _232  and  _233
REMARK  103  A    between atoms: _232  and  _235
REMARK  104  A    between atoms: _235  and  _236
REMARK  105  A    between atoms: _239  and  _241
REMARK  106  A    between atoms: _241  and  _242
REMARK  107  A    between atoms: _241  and  _244
REMARK  108  A    between atoms: _248  and  _249
REMARK  109  A    between atoms: _254  and  _256
REMARK  110  A    between atoms: _256  and  _257
REMARK  111  A    between atoms: _256  and  _259
REMARK  112  A    between atoms: _259  and  _260
REMARK  113  A    between atoms: _263  and  _265
REMARK  114  A    between atoms: _265  and  _266
REMARK  115  A    between atoms: _269  and  _271
REMARK  116  A    between atoms: _271  and  _272
REMARK  117  A    between atoms: _271  and  _274
REMARK  118  A    between atoms: _274  and  _275
REMARK  119  A    between atoms: _278  and  _280
REMARK  120  A    between atoms: _280  and  _281
REMARK  121  A    between atoms: _284  and  _286
REMARK  122  A    between atoms: _286  and  _287
REMARK  123  A    between atoms: _286  and  _289
REMARK  124  A    between atoms: _292  and  _294
REMARK  125  A    between atoms: _294  and  _295
REMARK  126  A    between atoms: _294  and  _297
REMARK  127  A    between atoms: _297  and  _298
REMARK  128  A    between atoms: _298  and  _299
REMARK  129  A    between atoms: _302  and  _304
REMARK  130  A    between atoms: _304  and  _305
REMARK  131  A    between atoms: _304  and  _307
REMARK  132  A    between atoms: _307  and  _308
REMARK  133  A    between atoms: _308  and  _309
REMARK  134  A    between atoms: _309  and  _310
REMARK  135  A    between atoms: _319  and  _321
REMARK  136  A    between atoms: _321  and  _322
REMARK  137  A    between atoms: _321  and  _324
REMARK  138  A    between atoms: _324  and  _325
REMARK  139  A    between atoms: _331  and  _333
REMARK  140  A    between atoms: _333  and  _334
REMARK  141  A    between atoms: _333  and  _336
REMARK  142  A    between atoms: _336  and  _337
REMARK  143  A    between atoms: _340  and  _342
REMARK  144  A    between atoms: _342  and  _343
REMARK  145  A    between atoms: _342  and  _345
REMARK  146  A    between atoms: _345  and  _346
REMARK  147  A    between atoms: _346  and  _347
REMARK  148  A    between atoms: _347  and  _348
REMARK  149  A    between atoms: _357  and  _359
REMARK  150  A    between atoms: _359  and  _360
REMARK  151  A    between atoms: _359  and  _362
REMARK  152  A    between atoms: _362  and  _363
REMARK  153  A    between atoms: _366  and  _368
REMARK  154  A    between atoms: _368  and  _369
REMARK  155  A    between atoms: _368  and  _371
REMARK  156  A    between atoms: _371  and  _372
REMARK  157  A    between atoms: _372  and  _373
REMARK  158  A    between atoms: _378  and  _380
REMARK  159  A    between atoms: _380  and  _381
REMARK  160  A    between atoms: _380  and  _383
REMARK  161  A    between atoms: _383  and  _384
REMARK  162  A    between atoms: _384  and  _385
REMARK  163  A    between atoms: _388  and  _390
REMARK  164  A    between atoms: _390  and  _391
REMARK  165  A    between atoms: _390  and  _393
REMARK  166  A    between atoms: _393  and  _394
REMARK  167  A    between atoms: _397  and  _399
REMARK  168  A    between atoms: _399  and  _400
REMARK  169  A    between atoms: _399  and  _402
REMARK  170  A    between atoms: _402  and  _403
REMARK  171  A    between atoms: _403  and  _404
REMARK  172  A    between atoms: _406  and  _408
REMARK  173  A    between atoms: _408  and  _409
REMARK  174  A    between atoms: _408  and  _411
REMARK  175  A    between atoms: _413  and  _415
REMARK  176  A    between atoms: _415  and  _416
REMARK  177  A    between atoms: _415  and  _418
REMARK  178  A    between atoms: _418  and  _419
REMARK  179  A    between atoms: _419  and  _420
REMARK  180  A    between atoms: _425  and  _427
REMARK  181  A    between atoms: _427  and  _428
REMARK  182  A    between atoms: _427  and  _430
REMARK  183  A    between atoms: _430  and  _431
REMARK  184  A    between atoms: _431  and  _432
REMARK  185  A    between atoms: _432  and  _433
REMARK  186  A    between atoms: _433  and  _434
REMARK  187  A    between atoms: _438  and  _440
REMARK  188  A    between atoms: _440  and  _441
REMARK  189  A    between atoms: _440  and  _443
REMARK  190  A    between atoms: _443  and  _444
REMARK  191  A    between atoms: _449  and  _450
REMARK  192  A    between atoms: _452  and  _454
REMARK  193  A    between atoms: _454  and  _455
REMARK  194  A    between atoms: _454  and  _457
REMARK  195  A    between atoms: _457  and  _458
REMARK  196  A    between atoms: _458  and  _459
REMARK  197  A    between atoms: _464  and  _466
REMARK  198  A    between atoms: _466  and  _467
REMARK  199  A    between atoms: _469  and  _471
REMARK  200  A    between atoms: _471  and  _472
REMARK  201  A    between atoms: _471  and  _474
REMARK  202  A    between atoms: _474  and  _475
REMARK  203  A    between atoms: _480  and  _482
REMARK  204  A    between atoms: _482  and  _483
REMARK  205  A    between atoms: _486  and  _488
REMARK  206  A    between atoms: _488  and  _489
REMARK  207  A    between atoms: _488  and  _491
REMARK  208  A    between atoms: _491  and  _492
REMARK  209  A    between atoms: _492  and  _493
REMARK  210  A    between atoms: _493  and  _494
REMARK  211  A    between atoms: _494  and  _495
REMARK  212  A    between atoms: _499  and  _501
REMARK  213  A    between atoms: _501  and  _502
REMARK  214  A    between atoms: _501  and  _504
REMARK  215  A    between atoms: _504  and  _505
REMARK  216  A    between atoms: _505  and  _506
REMARK  217  A    between atoms: _505  and  _507
REMARK  218  A    between atoms: _506  and  MG_619
REMARK  219  A    between atoms: _510  and  _512
REMARK  220  A    between atoms: _512  and  _513
REMARK  221  A    between atoms: _512  and  _515
REMARK  222  A    between atoms: _515  and  _516
REMARK  223  A    between atoms: _522  and  _524
REMARK  224  A    between atoms: _524  and  _525
REMARK  225  A    between atoms: _524  and  _527
REMARK  226  A    between atoms: _527  and  _528
REMARK  227  A    between atoms: _530  and  _532
REMARK  228  A    between atoms: _532  and  _533
REMARK  229  A    between atoms: _532  and  _535
REMARK  230  A    between atoms: _538  and  _540
REMARK  231  A    between atoms: _540  and  _541
REMARK  232  A    between atoms: _540  and  _543
REMARK  233  A    between atoms: _543  and  _544
REMARK  234  A    between atoms: _550  and  _552
REMARK  235  A    between atoms: _552  and  _553
REMARK  236  A    between atoms: _552  and  _555
REMARK  237  A    between atoms: _555  and  _556
REMARK  238  A    between atoms: _560  and  _561
REMARK  239  A    between atoms: _566  and  _568
REMARK  240  A    between atoms: _568  and  _569
REMARK  241  A    between atoms: _568  and  _571
REMARK  242  A    between atoms: _571  and  _572
REMARK  243  A    between atoms: _578  and  _580
REMARK  244  A    between atoms: _580  and  _581
REMARK  245  A    between atoms: _580  and  _583
REMARK  246  A    between atoms: _583  and  _584
REMARK  247  A    between atoms: _589  and  _590
REMARK  248  A    between atoms: _592  and  _594
REMARK  249  A    between atoms: _594  and  _595
REMARK  250  A    between atoms: _594  and  _597
REMARK  251  A    between atoms: _597  and  _598
REMARK  252  A    between atoms: _598  and  _599
REMARK  253  A    between atoms: _601  and  _603
REMARK  254  A    between atoms: _603  and  _604
REMARK  255  A    between atoms: _603  and  _606
REMARK  256  A    between atoms: _606  and  _607
REMARK  257  A    between atoms: _610  and  _612
REMARK  258  A    between atoms: _612  and  _613
REMARK  259  A    between atoms: _612  and  _615
REMARK  260  A    between atoms: _615  and  _616
REMARK                            x       y       z     vdW  Elec       q    Type
REMARK                         _______ _______ _______ _____ _____    ______ ____
ROOT
ATOM      1  CA  TYR A   4      -7.620   9.420  57.632  0.00  0.00    +0.000 C 
ENDROOT
BRANCH   1   4
ATOM      2  C   PHE A   3      -9.136   7.975  58.871  0.00  0.00    +0.000 C 
ATOM      3  O   PHE A   3      -8.594   8.274  59.942  0.00  0.00    +0.000 OA
ATOM      4  N   TYR A   4      -8.776   8.522  57.716  0.00  0.00    +0.000 N 
ATOM      5  H   TYR A   4      -9.323   8.310  56.857  0.00  0.00    +0.000 HD
BRANCH   2   6
ATOM      6  CA  PHE A   3     -10.293   6.975  58.843  0.00  0.00    +0.000 C 
BRANCH   6   8
ATOM      7  C   PRO A   2      -9.374   5.082  60.073  0.00  0.00    +0.000 C 
ATOM      8  N   PHE A   3     -10.143   6.169  60.051  0.00  0.00    +0.000 N 
ATOM      9  H   PHE A   3     -10.649   6.450  60.915  0.00  0.00    +0.000 HD
ATOM     10  O   PRO A   2      -8.737   4.681  59.084  0.00  0.00    +0.000 OA
BRANCH   7  16
ATOM     11  C   THR A   1      -9.296   2.168  60.345  0.00  0.00    +0.000 C 
ATOM     12  N   PRO A   2      -8.644   3.051  61.125  0.00  0.00    +0.000 N 
ATOM     13  CD  PRO A   2      -7.470   2.825  61.988  0.00  0.00    +0.000 C 
ATOM     14  CG  PRO A   2      -7.683   3.847  63.086  0.00  0.00    +0.000 C 
ATOM     15  CB  PRO A   2      -8.296   5.026  62.346  0.00  0.00    +0.000 C 
ATOM     16  CA  PRO A   2      -9.290   4.335  61.416  0.00  0.00    +0.000 C 
ATOM     17  O   THR A   1     -10.424   2.398  59.926  0.00  0.00    +0.000 OA
BRANCH  11  18
ATOM     18  CA  THR A   1      -8.578   0.853  60.018  0.00  0.00    +0.000 C 
BRANCH  18  19
ATOM     19  CB  THR A   1      -7.335   1.280  59.172  0.00  0.00    +0.000 C 
ATOM     20  CG2 THR A   1      -6.649   0.062  58.513  0.00  0.00    +0.000 C 
BRANCH  19  21
ATOM     21  OG1 THR A   1      -7.737   2.197  58.144  0.00  0.00    +0.000 OA
ATOM     22  HG1 THR A   1      -8.142   2.999  58.559  0.00  0.00    +0.000 HD
ENDBRANCH  19  21
ENDBRANCH  18  19
BRANCH  18  23
ATOM     23  N   THR A   1      -9.515   0.049  59.260  0.00  0.00    +0.000 NA
ATOM     24  H   THR A   1      -9.501   0.108  58.222  0.00  0.00    +0.000 HD
ENDBRANCH  18  23
ENDBRANCH  11  18
ENDBRANCH   7  16
ENDBRANCH   6   8
BRANCH   6  25
ATOM     25  CB  PHE A   3     -11.665   7.679  58.861  0.00  0.00    +0.000 C 
BRANCH  25  26
ATOM     26  CG  PHE A   3     -12.830   6.720  58.933  0.00  0.00    +0.000 A 
ATOM     27  CD2 PHE A   3     -13.564   6.597  60.103  0.00  0.00    +0.000 A 
ATOM     28  CE2 PHE A   3     -14.600   5.662  60.217  0.00  0.00    +0.000 A 
ATOM     29  CZ  PHE A   3     -14.911   4.834  59.136  0.00  0.00    +0.000 A 
ATOM     30  CE1 PHE A   3     -14.173   4.958  57.945  0.00  0.00    +0.000 A 
ATOM     31  CD1 PHE A   3     -13.149   5.892  57.853  0.00  0.00    +0.000 A 
ENDBRANCH  25  26
ENDBRANCH   6  25
ENDBRANCH   2   6
ENDBRANCH   1   4
BRANCH   1  32
ATOM     32  C   TYR A   4      -7.725  10.323  56.389  0.00  0.00    +0.000 C 
ATOM     33  N   UNK A   5      -6.755  11.227  56.206  0.00  0.00    +0.000 N 
ATOM     34  H   UNK A   5      -5.976  11.272  56.893  0.00  0.00    +0.000 HD
ATOM     35  O   TYR A   4      -8.666  10.193  55.623  0.00  0.00    +0.000 OA
BRANCH  33  36
ATOM     36  C   UNK A   5      -6.751  12.161  55.066  0.00  0.00    +0.000 C 
BRANCH  36  37
ATOM     37  C   UNK A   5      -8.107  12.838  54.923  0.00  0.00    +0.000 C 
ATOM     38  N   ILE A   6      -8.466  13.576  55.964  0.00  0.00    +0.000 N 
ATOM     39  H   ILE A   6      -7.806  13.676  56.762  0.00  0.00    +0.000 HD
ATOM     40  O   UNK A   5      -8.808  12.705  53.910  0.00  0.00    +0.000 OA
BRANCH  38  41
ATOM     41  CA  ILE A   6      -9.742  14.245  56.026  0.00  0.00    +0.000 C 
BRANCH  41  42
ATOM     42  C   ILE A   6      -9.576  15.739  55.790  0.00  0.00    +0.000 C 
ATOM     43  O   ILE A   6      -9.012  16.444  56.625  0.00  0.00    +0.000 OA
ATOM     44  N   ILE A   7     -10.082  16.196  54.650  0.00  0.00    +0.000 N 
ATOM     45  H   ILE A   7     -10.561  15.525  54.016  0.00  0.00    +0.000 HD
BRANCH  44  46
ATOM     46  CA  ILE A   7      -9.997  17.602  54.243  0.00  0.00    +0.000 C 
BRANCH  46  47
ATOM     47  CB  ILE A   7      -9.033  17.750  53.047  0.00  0.00    +0.000 C 
ATOM     48  CG2 ILE A   7      -9.163  19.143  52.436  0.00  0.00    +0.000 C 
BRANCH  47  49
ATOM     49  CG1 ILE A   7      -7.603  17.480  53.504  0.00  0.00    +0.000 C 
ATOM     50  CD1 ILE A   7      -6.560  17.663  52.404  0.00  0.00    +0.000 C 
ENDBRANCH  47  49
ENDBRANCH  46  47
BRANCH  46  51
ATOM     51  C   ILE A   7     -11.357  18.151  53.831  0.00  0.00    +0.000 C 
ATOM     52  O   ILE A   7     -12.089  17.519  53.080  0.00  0.00    +0.000 OA
ENDBRANCH  46  51
ENDBRANCH  44  46
ENDBRANCH  41  42
BRANCH  41  53
ATOM     53  CB  ILE A   6     -10.366  13.988  57.401  0.00  0.00    +0.000 C 
ATOM     54  CG2 ILE A   6     -11.781  14.533  57.450  0.00  0.00    +0.000 C 
BRANCH  53  55
ATOM     55  CG1 ILE A   6     -10.344  12.479  57.676  0.00  0.00    +0.000 C 
ATOM     56  CD1 ILE A   6     -11.001  12.090  58.993  0.00  0.00    +0.000 C 
ENDBRANCH  53  55
ENDBRANCH  41  53
ENDBRANCH  38  41
ENDBRANCH  36  37
BRANCH  36  57
ATOM     57  C   UNK A   5      -6.408  11.447  53.769  0.00  0.00    +0.000 C 
BRANCH  57  58
ATOM     58  C   UNK A   5      -6.383  12.389  52.582  0.00  0.00    +0.000 C 
ATOM     59  O   UNK A   5      -6.575  11.929  51.436  0.00  0.00    +0.000 OA
BRANCH  58  60
ATOM     60  O   UNK A   5      -6.151  13.602  52.796  0.00  0.00    +0.000 OA
ATOM     61 MG   UNK A   5      -6.179  14.100  50.354  0.00  0.00    +0.000 Mg
ENDBRANCH  58  60
ENDBRANCH  57  58
ENDBRANCH  36  57
ENDBRANCH  33  36
ENDBRANCH   1  32
BRANCH   1  62
ATOM     62  CB  TYR A   4      -6.352   8.559  57.563  0.00  0.00    +0.000 C 
BRANCH  62  63
ATOM     63  CG  TYR A   4      -6.408   7.518  56.443  0.00  0.00    +0.000 A 
ATOM     64  CD2 TYR A   4      -6.975   6.252  56.669  0.00  0.00    +0.000 A 
ATOM     65  CE2 TYR A   4      -7.060   5.299  55.645  0.00  0.00    +0.000 A 
ATOM     66  CZ  TYR A   4      -6.567   5.595  54.379  0.00  0.00    +0.000 A 
ATOM     67  CE1 TYR A   4      -5.996   6.842  54.118  0.00  0.00    +0.000 A 
ATOM     68  CD1 TYR A   4      -5.926   7.808  55.174  0.00  0.00    +0.000 A 
BRANCH  66  69
ATOM     69  OH  TYR A   4      -6.620   4.639  53.371  0.00  0.00    +0.000 OA
ATOM     70  HH  TYR A   4      -6.230   5.013  52.542  0.00  0.00    +0.000 HD
ENDBRANCH  66  69
ENDBRANCH  62  63
ENDBRANCH   1  62
TORSDOF 27
REMARK  Name = ../refined-set-2016/3dnt/3dnt_pocket.pdb
REMARK  260 active torsions:
REMARK  status: ('A' for Active; 'I' for Inactive)
REMARK    1  A    between atoms: _1  and  _3
REMARK    2  A    between atoms: _3  and  _4
REMARK    3  A    between atoms: _3  and  _6
REMARK    4  A    between atoms: _6  and  _7
REMARK    5  A    between atoms: _12  and  _14
REMARK    6  A    between atoms: _14  and  _15
REMARK    7  A    between atoms: _14  and  _17
REMARK    8  A    between atoms: _17  and  _18
REMARK    9  A    between atoms: _21  and  _23
REMARK   10  A    between atoms: _23  and  _24
REMARK   11  A    between atoms: _23  and  _26
REMARK   12  A    between atoms: _26  and  _27
REMARK   13  A    between atoms: _31  and  _32
REMARK   14  A    between atoms: _37  and  _39
REMARK   15  A    between atoms: _39  and  _40
REMARK   16  A    between atoms: _39  and  _42
REMARK   17  A    between atoms: _42  and  _43
REMARK   18  A    between atoms: _46  and  _48
REMARK   19  A    between atoms: _48  and  _49
REMARK   20  A    between atoms: _48  and  _51
REMARK   21  A    between atoms: _51  and  _52
REMARK   22  A    between atoms: _54  and  _56
REMARK   23  A    between atoms: _56  and  _57
REMARK   24  A    between atoms: _56  and  _59
REMARK   25  A    between atoms: _59  and  _60
REMARK   26  A    between atoms: _62  and  _64
REMARK   27  A    between atoms: _64  and  _65
REMARK   28  A    between atoms: _64  and  _67
REMARK   29  A    between atoms: _70  and  _72
REMARK   30  A    between atoms: _72  and  _73
REMARK   31  A    between atoms: _75  and  _77
REMARK   32  A    between atoms: _77  and  _78
REMARK   33  A    between atoms: _77  and  _80
REMARK   34  A    between atoms: _80  and  _81
REMARK   35  A    between atoms: _83  and  _85
REMARK   36  A    between atoms: _85  and  _86
REMARK   37  A    between atoms: _85  and  _88
REMARK   38  A    between atoms: _91  and  _93
REMARK   39  A    between atoms: _93  and  _94
REMARK   40  A    between atoms: _97  and  _99
REMARK   41  A    between atoms: _99  and  _100
REMARK   42  A    between atoms: _102  and  _104
REMARK   43  A    between atoms: _104  and  _105
REMARK   44  A    between atoms: _108  and  _110
REMARK   45  A    between atoms: _110  and  _111
REMARK   46  A    between atoms: _110  and  _113
REMARK   47  A    between atoms: _113  and  _114
REMARK   48  A    between atoms: _114  and  _115
REMARK   49  A    between atoms: _120  and  _122
REMARK   50  A    between atoms: _122  and  _123
REMARK   51  A    between atoms: _122  and  _125
REMARK   52  A    between atoms: _125  and  _126
REMARK   53  A    between atoms: _126  and  _127
REMARK   54  A    between atoms: _130  and  _132
REMARK   55  A    between atoms: _132  and  _133
REMARK   56  A    between atoms: _132  and  _135
REMARK   57  A    between atoms: _135  and  _136
REMARK   58  A    between atoms: _136  and  _137
REMARK   59  A    between atoms: _137  and  _138
REMARK   60  A    between atoms: _138  and  _139
REMARK   61  A    between atoms: _143  and  _145
REMARK   62  A    between atoms: _145  and  _146
REMARK   63  A    between atoms: _145  and  _148
REMARK   64  A    between atoms: _148  and  _149
REMARK   65  A    between atoms: _152  and  _154
REMARK   66  A    between atoms: _154  and  _155
REMARK   67  A    between atoms: _154  and  _157
REMARK   68  A    between atoms: _157  and  _158
REMARK   69  A    between atoms: _163  and  _165
REMARK   70  A    between atoms: _165  and  _166
REMARK   71  A    between atoms: _165  and  _168
REMARK   72  A    between atoms: _168  and  _169
REMARK   73  A    between atoms: _172  and  _174
REMARK   74  A    between atoms: _174  and  _175
REMARK   75  A    between atoms: _174  and  _177
REMARK   76  A    between atoms: _177  and  _178
REMARK   77  A    between atoms: _181  and  _183
REMARK   78  A    between atoms: _183  and  _184
REMARK   79  A    between atoms: _183  and  _186
REMARK   80  A    between atoms: _186  and  _187
REMARK   81  A    between atoms: _187  and  _188
REMARK   82  A    between atoms: _188  and  _189
REMARK   83  A    between atoms: _189  and  _190
REMARK   84  A    between atoms: _194  and  _196
REMARK   85  A    between atoms: _196  and  _197
REMARK   86  A    between atoms: _196  and  _199
REMARK   87  A    between atoms: _199  and  _200
REMARK   88  A    between atoms: _203  and  _205
REMARK   89  A    between atoms: _205  and  _206
REMARK   90  A    between atoms: _205  and  _208
REMARK   91  A    between atoms: _208  and  _209
REMARK   92  A    between atoms: _212  and  _214
REMARK   93  A    between atoms: _214  and  _215
REMARK   94  A    between atoms: _214  and  _217
REMARK   95  A    between atoms: _217  and  _218
REMARK   96  A    between atoms: _220  and  _222
REMARK   97  A    between atoms: _222  and  _223
REMARK   98  A    between atoms: _222  and  _225
REMARK   99  A    between atoms: _225  and  _226
REMARK  100  A    between atoms: _226  and  _227
REMARK  101  A    between atoms: _230  and  _232
REMARK  102  A    between atoms: _232  and  _233
REMARK  103  A    between atoms: _232  and  _235
REMARK  104  A    between atoms: _235  and  _236
REMARK  105  A    between atoms: _239  and  _241
REMARK  106  A    between atoms: _241  and  _242
REMARK  107  A    between atoms: _241  and  _244
REMARK  108  A    between atoms: _248  and  _249
REMARK  109  A    between atoms: _254  and  _256
REMARK  110  A    between atoms: _256  and  _257
REMARK  111  A    between atoms: _256  and  _259
REMARK  112  A    between atoms: _259  and  _260
REMARK  113  A    between atoms: _263  and  _265
REMARK  114  A    between atoms: _265  and  _266
REMARK  115  A    between atoms: _269  and  _271
REMARK  116  A    between atoms: _271  and  _272
REMARK  117  A    between atoms: _271  and  _274
REMARK  118  A    between atoms: _274  and  _275
REMARK  119  A    between atoms: _278  and  _280
REMARK  120  A    between atoms: _280  and  _281
REMARK  121  A    between atoms: _284  and  _286
REMARK  122  A    between atoms: _286  and  _287
REMARK  123  A    between atoms: _286  and  _289
REMARK  124  A    between atoms: _292  and  _294
REMARK  125  A    between atoms: _294  and  _295
REMARK  126  A    between atoms: _294  and  _297
REMARK  127  A    between atoms: _297  and  _298
REMARK  128  A    between atoms: _298  and  _299
REMARK  129  A    between atoms: _302  and  _304
REMARK  130  A    between atoms: _304  and  _305
REMARK  131  A    between atoms: _304  and  _307
REMARK  132  A    between atoms: _307  and  _308
REMARK  133  A    between atoms: _308  and  _309
REMARK  134  A    between atoms: _309  and  _310
REMARK  135  A    between atoms: _319  and  _321
REMARK  136  A    between atoms: _321  and  _322
REMARK  137  A    between atoms: _321  and  _324
REMARK  138  A    between atoms: _324  and  _325
REMARK  139  A    between atoms: _331  and  _333
REMARK  140  A    between atoms: _333  and  _334
REMARK  141  A    between atoms: _333  and  _336
REMARK  142  A    between atoms: _336  and  _337
REMARK  143  A    between atoms: _340  and  _342
REMARK  144  A    between atoms: _342  and  _343
REMARK  145  A    between atoms: _342  and  _345
REMARK  146  A    between atoms: _345  and  _346
REMARK  147  A    between atoms: _346  and  _347
REMARK  148  A    between atoms: _347  and  _348
REMARK  149  A    between atoms: _357  and  _359
REMARK  150  A    between atoms: _359  and  _360
REMARK  151  A    between atoms: _359  and  _362
REMARK  152  A    between atoms: _362  and  _363
REMARK  153  A    between atoms: _366  and  _368
REMARK  154  A    between atoms: _368  and  _369
REMARK  155  A    between atoms: _368  and  _371
REMARK  156  A    between atoms: _371  and  _372
REMARK  157  A    between atoms: _372  and  _373
REMARK  158  A    between atoms: _378  and  _380
REMARK  159  A    between atoms: _380  and  _381
REMARK  160  A    between atoms: _380  and  _383
REMARK  161  A    between atoms: _383  and  _384
REMARK  162  A    between atoms: _384  and  _385
REMARK  163  A    between atoms: _388  and  _390
REMARK  164  A    between atoms: _390  and  _391
REMARK  165  A    between atoms: _390  and  _393
REMARK  166  A    between atoms: _393  and  _394
REMARK  167  A    between atoms: _397  and  _399
REMARK  168  A    between atoms: _399  and  _400
REMARK  169  A    between atoms: _399  and  _402
REMARK  170  A    between atoms: _402  and  _403
REMARK  171  A    between atoms: _403  and  _404
REMARK  172  A    between atoms: _406  and  _408
REMARK  173  A    between atoms: _408  and  _409
REMARK  174  A    between atoms: _408  and  _411
REMARK  175  A    between atoms: _413  and  _415
REMARK  176  A    between atoms: _415  and  _416
REMARK  177  A    between atoms: _415  and  _418
REMARK  178  A    between atoms: _418  and  _419
REMARK  179  A    between atoms: _419  and  _420
REMARK  180  A    between atoms: _425  and  _427
REMARK  181  A    between atoms: _427  and  _428
REMARK  182  A    between atoms: _427  and  _430
REMARK  183  A    between atoms: _430  and  _431
REMARK  184  A    between atoms: _431  and  _432
REMARK  185  A    between atoms: _432  and  _433
REMARK  186  A    between atoms: _433  and  _434
REMARK  187  A    between atoms: _438  and  _440
REMARK  188  A    between atoms: _440  and  _441
REMARK  189  A    between atoms: _440  and  _443
REMARK  190  A    between atoms: _443  and  _444
REMARK  191  A    between atoms: _449  and  _450
REMARK  192  A    between atoms: _452  and  _454
REMARK  193  A    between atoms: _454  and  _455
REMARK  194  A    between atoms: _454  and  _457
REMARK  195  A    between atoms: _457  and  _458
REMARK  196  A    between atoms: _458  and  _459
REMARK  197  A    between atoms: _464  and  _466
REMARK  198  A    between atoms: _466  and  _467
REMARK  199  A    between atoms: _469  and  _471
REMARK  200  A    between atoms: _471  and  _472
REMARK  201  A    between atoms: _471  and  _474
REMARK  202  A    between atoms: _474  and  _475
REMARK  203  A    between atoms: _480  and  _482
REMARK  204  A    between atoms: _482  and  _483
REMARK  205  A    between atoms: _486  and  _488
REMARK  206  A    between atoms: _488  and  _489
REMARK  207  A    between atoms: _488  and  _491
REMARK  208  A    between atoms: _491  and  _492
REMARK  209  A    between atoms: _492  and  _493
REMARK  210  A    between atoms: _493  and  _494
REMARK  211  A    between atoms: _494  and  _495
REMARK  212  A    between atoms: _499  and  _501
REMARK  213  A    between atoms: _501  and  _502
REMARK  214  A    between atoms: _501  and  _504
REMARK  215  A    between atoms: _504  and  _505
REMARK  216  A    between atoms: _505  and  _506
REMARK  217  A    between atoms: _505  and  _507
REMARK  218  A    between atoms: _506  and  MG_619
REMARK  219  A    between atoms: _510  and  _512
REMARK  220  A    between atoms: _512  and  _513
REMARK  221  A    between atoms: _512  and  _515
REMARK  222  A    between atoms: _515  and  _516
REMARK  223  A    between atoms: _522  and  _524
REMARK  224  A    between atoms: _524  and  _525
REMARK  225  A    between atoms: _524  and  _527
REMARK  226  A    between atoms: _527  and  _528
REMARK  227  A    between atoms: _530  and  _532
REMARK  228  A    between atoms: _532  and  _533
REMARK  229  A    between atoms: _532  and  _535
REMARK  230  A    between atoms: _538  and  _540
REMARK  231  A    between atoms: _540  and  _541
REMARK  232  A    between atoms: _540  and  _543
REMARK  233  A    between atoms: _543  and  _544
REMARK  234  A    between atoms: _550  and  _552
REMARK  235  A    between atoms: _552  and  _553
REMARK  236  A    between atoms: _552  and  _555
REMARK  237  A    between atoms: _555  and  _556
REMARK  238  A    between atoms: _560  and  _561
REMARK  239  A    between atoms: _566  and  _568
REMARK  240  A    between atoms: _568  and  _569
REMARK  241  A    between atoms: _568  and  _571
REMARK  242  A    between atoms: _571  and  _572
REMARK  243  A    between atoms: _578  and  _580
REMARK  244  A    between atoms: _580  and  _581
REMARK  245  A    between atoms: _580  and  _583
REMARK  246  A    between atoms: _583  and  _584
REMARK  247  A    between atoms: _589  and  _590
REMARK  248  A    between atoms: _592  and  _594
REMARK  249  A    between atoms: _594  and  _595
REMARK  250  A    between atoms: _594  and  _597
REMARK  251  A    between atoms: _597  and  _598
REMARK  252  A    between atoms: _598  and  _599
REMARK  253  A    between atoms: _601  and  _603
REMARK  254  A    between atoms: _603  and  _604
REMARK  255  A    between atoms: _603  and  _606
REMARK  256  A    between atoms: _606  and  _607
REMARK  257  A    between atoms: _610  and  _612
REMARK  258  A    between atoms: _612  and  _613
REMARK  259  A    between atoms: _612  and  _615
REMARK  260  A    between atoms: _615  and  _616
REMARK                            x       y       z     vdW  Elec       q    Type
REMARK                         _______ _______ _______ _____ _____    ______ ____
ROOT
ATOM      1  O   HOH     1      -3.356   1.842  53.535  0.00  0.00    +0.000 OA
ENDROOT
TORSDOF 0
REMARK  Name = ../refined-set-2016/3dnt/3dnt_pocket.pdb
REMARK  260 active torsions:
REMARK  status: ('A' for Active; 'I' for Inactive)
REMARK    1  A    between atoms: _1  and  _3
REMARK    2  A    between atoms: _3  and  _4
REMARK    3  A    between atoms: _3  and  _6
REMARK    4  A    between atoms: _6  and  _7
REMARK    5  A    between atoms: _12  and  _14
REMARK    6  A    between atoms: _14  and  _15
REMARK    7  A    between atoms: _14  and  _17
REMARK    8  A    between atoms: _17  and  _18
REMARK    9  A    between atoms: _21  and  _23
REMARK   10  A    between atoms: _23  and  _24
REMARK   11  A    between atoms: _23  and  _26
REMARK   12  A    between atoms: _26  and  _27
REMARK   13  A    between atoms: _31  and  _32
REMARK   14  A    between atoms: _37  and  _39
REMARK   15  A    between atoms: _39  and  _40
REMARK   16  A    between atoms: _39  and  _42
REMARK   17  A    between atoms: _42  and  _43
REMARK   18  A    between atoms: _46  and  _48
REMARK   19  A    between atoms: _48  and  _49
REMARK   20  A    between atoms: _48  and  _51
REMARK   21  A    between atoms: _51  and  _52
REMARK   22  A    between atoms: _54  and  _56
REMARK   23  A    between atoms: _56  and  _57
REMARK   24  A    between atoms: _56  and  _59
REMARK   25  A    between atoms: _59  and  _60
REMARK   26  A    between atoms: _62  and  _64
REMARK   27  A    between atoms: _64  and  _65
REMARK   28  A    between atoms: _64  and  _67
REMARK   29  A    between atoms: _70  and  _72
REMARK   30  A    between atoms: _72  and  _73
REMARK   31  A    between atoms: _75  and  _77
REMARK   32  A    between atoms: _77  and  _78
REMARK   33  A    between atoms: _77  and  _80
REMARK   34  A    between atoms: _80  and  _81
REMARK   35  A    between atoms: _83  and  _85
REMARK   36  A    between atoms: _85  and  _86
REMARK   37  A    between atoms: _85  and  _88
REMARK   38  A    between atoms: _91  and  _93
REMARK   39  A    between atoms: _93  and  _94
REMARK   40  A    between atoms: _97  and  _99
REMARK   41  A    between atoms: _99  and  _100
REMARK   42  A    between atoms: _102  and  _104
REMARK   43  A    between atoms: _104  and  _105
REMARK   44  A    between atoms: _108  and  _110
REMARK   45  A    between atoms: _110  and  _111
REMARK   46  A    between atoms: _110  and  _113
REMARK   47  A    between atoms: _113  and  _114
REMARK   48  A    between atoms: _114  and  _115
REMARK   49  A    between atoms: _120  and  _122
REMARK   50  A    between atoms: _122  and  _123
REMARK   51  A    between atoms: _122  and  _125
REMARK   52  A    between atoms: _125  and  _126
REMARK   53  A    between atoms: _126  and  _127
REMARK   54  A    between atoms: _130  and  _132
REMARK   55  A    between atoms: _132  and  _133
REMARK   56  A    between atoms: _132  and  _135
REMARK   57  A    between atoms: _135  and  _136
REMARK   58  A    between atoms: _136  and  _137
REMARK   59  A    between atoms: _137  and  _138
REMARK   60  A    between atoms: _138  and  _139
REMARK   61  A    between atoms: _143  and  _145
REMARK   62  A    between atoms: _145  and  _146
REMARK   63  A    between atoms: _145  and  _148
REMARK   64  A    between atoms: _148  and  _149
REMARK   65  A    between atoms: _152  and  _154
REMARK   66  A    between atoms: _154  and  _155
REMARK   67  A    between atoms: _154  and  _157
REMARK   68  A    between atoms: _157  and  _158
REMARK   69  A    between atoms: _163  and  _165
REMARK   70  A    between atoms: _165  and  _166
REMARK   71  A    between atoms: _165  and  _168
REMARK   72  A    between atoms: _168  and  _169
REMARK   73  A    between atoms: _172  and  _174
REMARK   74  A    between atoms: _174  and  _175
REMARK   75  A    between atoms: _174  and  _177
REMARK   76  A    between atoms: _177  and  _178
REMARK   77  A    between atoms: _181  and  _183
REMARK   78  A    between atoms: _183  and  _184
REMARK   79  A    between atoms: _183  and  _186
REMARK   80  A    between atoms: _186  and  _187
REMARK   81  A    between atoms: _187  and  _188
REMARK   82  A    between atoms: _188  and  _189
REMARK   83  A    between atoms: _189  and  _190
REMARK   84  A    between atoms: _194  and  _196
REMARK   85  A    between atoms: _196  and  _197
REMARK   86  A    between atoms: _196  and  _199
REMARK   87  A    between atoms: _199  and  _200
REMARK   88  A    between atoms: _203  and  _205
REMARK   89  A    between atoms: _205  and  _206
REMARK   90  A    between atoms: _205  and  _208
REMARK   91  A    between atoms: _208  and  _209
REMARK   92  A    between atoms: _212  and  _214
REMARK   93  A    between atoms: _214  and  _215
REMARK   94  A    between atoms: _214  and  _217
REMARK   95  A    between atoms: _217  and  _218
REMARK   96  A    between atoms: _220  and  _222
REMARK   97  A    between atoms: _222  and  _223
REMARK   98  A    between atoms: _222  and  _225
REMARK   99  A    between atoms: _225  and  _226
REMARK  100  A    between atoms: _226  and  _227
REMARK  101  A    between atoms: _230  and  _232
REMARK  102  A    between atoms: _232  and  _233
REMARK  103  A    between atoms: _232  and  _235
REMARK  104  A    between atoms: _235  and  _236
REMARK  105  A    between atoms: _239  and  _241
REMARK  106  A    between atoms: _241  and  _242
REMARK  107  A    between atoms: _241  and  _244
REMARK  108  A    between atoms: _248  and  _249
REMARK  109  A    between atoms: _254  and  _256
REMARK  110  A    between atoms: _256  and  _257
REMARK  111  A    between atoms: _256  and  _259
REMARK  112  A    between atoms: _259  and  _260
REMARK  113  A    between atoms: _263  and  _265
REMARK  114  A    between atoms: _265  and  _266
REMARK  115  A    between atoms: _269  and  _271
REMARK  116  A    between atoms: _271  and  _272
REMARK  117  A    between atoms: _271  and  _274
REMARK  118  A    between atoms: _274  and  _275
REMARK  119  A    between atoms: _278  and  _280
REMARK  120  A    between atoms: _280  and  _281
REMARK  121  A    between atoms: _284  and  _286
REMARK  122  A    between atoms: _286  and  _287
REMARK  123  A    between atoms: _286  and  _289
REMARK  124  A    between atoms: _292  and  _294
REMARK  125  A    between atoms: _294  and  _295
REMARK  126  A    between atoms: _294  and  _297
REMARK  127  A    between atoms: _297  and  _298
REMARK  128  A    between atoms: _298  and  _299
REMARK  129  A    between atoms: _302  and  _304
REMARK  130  A    between atoms: _304  and  _305
REMARK  131  A    between atoms: _304  and  _307
REMARK  132  A    between atoms: _307  and  _308
REMARK  133  A    between atoms: _308  and  _309
REMARK  134  A    between atoms: _309  and  _310
REMARK  135  A    between atoms: _319  and  _321
REMARK  136  A    between atoms: _321  and  _322
REMARK  137  A    between atoms: _321  and  _324
REMARK  138  A    between atoms: _324  and  _325
REMARK  139  A    between atoms: _331  and  _333
REMARK  140  A    between atoms: _333  and  _334
REMARK  141  A    between atoms: _333  and  _336
REMARK  142  A    between atoms: _336  and  _337
REMARK  143  A    between atoms: _340  and  _342
REMARK  144  A    between atoms: _342  and  _343
REMARK  145  A    between atoms: _342  and  _345
REMARK  146  A    between atoms: _345  and  _346
REMARK  147  A    between atoms: _346  and  _347
REMARK  148  A    between atoms: _347  and  _348
REMARK  149  A    between atoms: _357  and  _359
REMARK  150  A    between atoms: _359  and  _360
REMARK  151  A    between atoms: _359  and  _362
REMARK  152  A    between atoms: _362  and  _363
REMARK  153  A    between atoms: _366  and  _368
REMARK  154  A    between atoms: _368  and  _369
REMARK  155  A    between atoms: _368  and  _371
REMARK  156  A    between atoms: _371  and  _372
REMARK  157  A    between atoms: _372  and  _373
REMARK  158  A    between atoms: _378  and  _380
REMARK  159  A    between atoms: _380  and  _381
REMARK  160  A    between atoms: _380  and  _383
REMARK  161  A    between atoms: _383  and  _384
REMARK  162  A    between atoms: _384  and  _385
REMARK  163  A    between atoms: _388  and  _390
REMARK  164  A    between atoms: _390  and  _391
REMARK  165  A    between atoms: _390  and  _393
REMARK  166  A    between atoms: _393  and  _394
REMARK  167  A    between atoms: _397  and  _399
REMARK  168  A    between atoms: _399  and  _400
REMARK  169  A    between atoms: _399  and  _402
REMARK  170  A    between atoms: _402  and  _403
REMARK  171  A    between atoms: _403  and  _404
REMARK  172  A    between atoms: _406  and  _408
REMARK  173  A    between atoms: _408  and  _409
REMARK  174  A    between atoms: _408  and  _411
REMARK  175  A    between atoms: _413  and  _415
REMARK  176  A    between atoms: _415  and  _416
REMARK  177  A    between atoms: _415  and  _418
REMARK  178  A    between atoms: _418  and  _419
REMARK  179  A    between atoms: _419  and  _420
REMARK  180  A    between atoms: _425  and  _427
REMARK  181  A    between atoms: _427  and  _428
REMARK  182  A    between atoms: _427  and  _430
REMARK  183  A    between atoms: _430  and  _431
REMARK  184  A    between atoms: _431  and  _432
REMARK  185  A    between atoms: _432  and  _433
REMARK  186  A    between atoms: _433  and  _434
REMARK  187  A    between atoms: _438  and  _440
REMARK  188  A    between atoms: _440  and  _441
REMARK  189  A    between atoms: _440  and  _443
REMARK  190  A    between atoms: _443  and  _444
REMARK  191  A    between atoms: _449  and  _450
REMARK  192  A    between atoms: _452  and  _454
REMARK  193  A    between atoms: _454  and  _455
REMARK  194  A    between atoms: _454  and  _457
REMARK  195  A    between atoms: _457  and  _458
REMARK  196  A    between atoms: _458  and  _459
REMARK  197  A    between atoms: _464  and  _466
REMARK  198  A    between atoms: _466  and  _467
REMARK  199  A    between atoms: _469  and  _471
REMARK  200  A    between atoms: _471  and  _472
REMARK  201  A    between atoms: _471  and  _474
REMARK  202  A    between atoms: _474  and  _475
REMARK  203  A    between atoms: _480  and  _482
REMARK  204  A    between atoms: _482  and  _483
REMARK  205  A    between atoms: _486  and  _488
REMARK  206  A    between atoms: _488  and  _489
REMARK  207  A    between atoms: _488  and  _491
REMARK  208  A    between atoms: _491  and  _492
REMARK  209  A    between atoms: _492  and  _493
REMARK  210  A    between atoms: _493  and  _494
REMARK  211  A    between atoms: _494  and  _495
REMARK  212  A    between atoms: _499  and  _501
REMARK  213  A    between atoms: _501  and  _502
REMARK  214  A    between atoms: _501  and  _504
REMARK  215  A    between atoms: _504  and  _505
REMARK  216  A    between atoms: _505  and  _506
REMARK  217  A    between atoms: _505  and  _507
REMARK  218  A    between atoms: _506  and  MG_619
REMARK  219  A    between atoms: _510  and  _512
REMARK  220  A    between atoms: _512  and  _513
REMARK  221  A    between atoms: _512  and  _515
REMARK  222  A    between atoms: _515  and  _516
REMARK  223  A    between atoms: _522  and  _524
REMARK  224  A    between atoms: _524  and  _525
REMARK  225  A    between atoms: _524  and  _527
REMARK  226  A    between atoms: _527  and  _528
REMARK  227  A    between atoms: _530  and  _532
REMARK  228  A    between atoms: _532  and  _533
REMARK  229  A    between atoms: _532  and  _535
REMARK  230  A    between atoms: _538  and  _540
REMARK  231  A    between atoms: _540  and  _541
REMARK  232  A    between atoms: _540  and  _543
REMARK  233  A    between atoms: _543  and  _544
REMARK  234  A    between atoms: _550  and  _552
REMARK  235  A    between atoms: _552  and  _553
REMARK  236  A    between atoms: _552  and  _555
REMARK  237  A    between atoms: _555  and  _556
REMARK  238  A    between atoms: _560  and  _561
REMARK  239  A    between atoms: _566  and  _568
REMARK  240  A    between atoms: _568  and  _569
REMARK  241  A    between atoms: _568  and  _571
REMARK  242  A    between atoms: _571  and  _572
REMARK  243  A    between atoms: _578  and  _580
REMARK  244  A    between atoms: _580  and  _581
REMARK  245  A    between atoms: _580  and  _583
REMARK  246  A    between atoms: _583  and  _584
REMARK  247  A    between atoms: _589  and  _590
REMARK  248  A    between atoms: _592  and  _594
REMARK  249  A    between atoms: _594  and  _595
REMARK  250  A    between atoms: _594  and  _597
REMARK  251  A    between atoms: _597  and  _598
REMARK  252  A    between atoms: _598  and  _599
REMARK  253  A    between atoms: _601  and  _603
REMARK  254  A    between atoms: _603  and  _604
REMARK  255  A    between atoms: _603  and  _606
REMARK  256  A    between atoms: _606  and  _607
REMARK  257  A    between atoms: _610  and  _612
REMARK  258  A    between atoms: _612  and  _613
REMARK  259  A    between atoms: _612  and  _615
REMARK  260  A    between atoms: _615  and  _616
REMARK                            x       y       z     vdW  Elec       q    Type
REMARK                         _______ _______ _______ _____ _____    ______ ____
ROOT
ATOM      1  O   HOH     1       2.805   3.542  51.052  0.00  0.00    +0.000 OA
ENDROOT
TORSDOF 0
REMARK  Name = ../refined-set-2016/3dnt/3dnt_pocket.pdb
REMARK  260 active torsions:
REMARK  status: ('A' for Active; 'I' for Inactive)
REMARK    1  A    between atoms: _1  and  _3
REMARK    2  A    between atoms: _3  and  _4
REMARK    3  A    between atoms: _3  and  _6
REMARK    4  A    between atoms: _6  and  _7
REMARK    5  A    between atoms: _12  and  _14
REMARK    6  A    between atoms: _14  and  _15
REMARK    7  A    between atoms: _14  and  _17
REMARK    8  A    between atoms: _17  and  _18
REMARK    9  A    between atoms: _21  and  _23
REMARK   10  A    between atoms: _23  and  _24
REMARK   11  A    between atoms: _23  and  _26
REMARK   12  A    between atoms: _26  and  _27
REMARK   13  A    between atoms: _31  and  _32
REMARK   14  A    between atoms: _37  and  _39
REMARK   15  A    between atoms: _39  and  _40
REMARK   16  A    between atoms: _39  and  _42
REMARK   17  A    between atoms: _42  and  _43
REMARK   18  A    between atoms: _46  and  _48
REMARK   19  A    between atoms: _48  and  _49
REMARK   20  A    between atoms: _48  and  _51
REMARK   21  A    between atoms: _51  and  _52
REMARK   22  A    between atoms: _54  and  _56
REMARK   23  A    between atoms: _56  and  _57
REMARK   24  A    between atoms: _56  and  _59
REMARK   25  A    between atoms: _59  and  _60
REMARK   26  A    between atoms: _62  and  _64
REMARK   27  A    between atoms: _64  and  _65
REMARK   28  A    between atoms: _64  and  _67
REMARK   29  A    between atoms: _70  and  _72
REMARK   30  A    between atoms: _72  and  _73
REMARK   31  A    between atoms: _75  and  _77
REMARK   32  A    between atoms: _77  and  _78
REMARK   33  A    between atoms: _77  and  _80
REMARK   34  A    between atoms: _80  and  _81
REMARK   35  A    between atoms: _83  and  _85
REMARK   36  A    between atoms: _85  and  _86
REMARK   37  A    between atoms: _85  and  _88
REMARK   38  A    between atoms: _91  and  _93
REMARK   39  A    between atoms: _93  and  _94
REMARK   40  A    between atoms: _97  and  _99
REMARK   41  A    between atoms: _99  and  _100
REMARK   42  A    between atoms: _102  and  _104
REMARK   43  A    between atoms: _104  and  _105
REMARK   44  A    between atoms: _108  and  _110
REMARK   45  A    between atoms: _110  and  _111
REMARK   46  A    between atoms: _110  and  _113
REMARK   47  A    between atoms: _113  and  _114
REMARK   48  A    between atoms: _114  and  _115
REMARK   49  A    between atoms: _120  and  _122
REMARK   50  A    between atoms: _122  and  _123
REMARK   51  A    between atoms: _122  and  _125
REMARK   52  A    between atoms: _125  and  _126
REMARK   53  A    between atoms: _126  and  _127
REMARK   54  A    between atoms: _130  and  _132
REMARK   55  A    between atoms: _132  and  _133
REMARK   56  A    between atoms: _132  and  _135
REMARK   57  A    between atoms: _135  and  _136
REMARK   58  A    between atoms: _136  and  _137
REMARK   59  A    between atoms: _137  and  _138
REMARK   60  A    between atoms: _138  and  _139
REMARK   61  A    between atoms: _143  and  _145
REMARK   62  A    between atoms: _145  and  _146
REMARK   63  A    between atoms: _145  and  _148
REMARK   64  A    between atoms: _148  and  _149
REMARK   65  A    between atoms: _152  and  _154
REMARK   66  A    between atoms: _154  and  _155
REMARK   67  A    between atoms: _154  and  _157
REMARK   68  A    between atoms: _157  and  _158
REMARK   69  A    between atoms: _163  and  _165
REMARK   70  A    between atoms: _165  and  _166
REMARK   71  A    between atoms: _165  and  _168
REMARK   72  A    between atoms: _168  and  _169
REMARK   73  A    between atoms: _172  and  _174
REMARK   74  A    between atoms: _174  and  _175
REMARK   75  A    between atoms: _174  and  _177
REMARK   76  A    between atoms: _177  and  _178
REMARK   77  A    between atoms: _181  and  _183
REMARK   78  A    between atoms: _183  and  _184
REMARK   79  A    between atoms: _183  and  _186
REMARK   80  A    between atoms: _186  and  _187
REMARK   81  A    between atoms: _187  and  _188
REMARK   82  A    between atoms: _188  and  _189
REMARK   83  A    between atoms: _189  and  _190
REMARK   84  A    between atoms: _194  and  _196
REMARK   85  A    between atoms: _196  and  _197
REMARK   86  A    between atoms: _196  and  _199
REMARK   87  A    between atoms: _199  and  _200
REMARK   88  A    between atoms: _203  and  _205
REMARK   89  A    between atoms: _205  and  _206
REMARK   90  A    between atoms: _205  and  _208
REMARK   91  A    between atoms: _208  and  _209
REMARK   92  A    between atoms: _212  and  _214
REMARK   93  A    between atoms: _214  and  _215
REMARK   94  A    between atoms: _214  and  _217
REMARK   95  A    between atoms: _217  and  _218
REMARK   96  A    between atoms: _220  and  _222
REMARK   97  A    between atoms: _222  and  _223
REMARK   98  A    between atoms: _222  and  _225
REMARK   99  A    between atoms: _225  and  _226
REMARK  100  A    between atoms: _226  and  _227
REMARK  101  A    between atoms: _230  and  _232
REMARK  102  A    between atoms: _232  and  _233
REMARK  103  A    between atoms: _232  and  _235
REMARK  104  A    between atoms: _235  and  _236
REMARK  105  A    between atoms: _239  and  _241
REMARK  106  A    between atoms: _241  and  _242
REMARK  107  A    between atoms: _241  and  _244
REMARK  108  A    between atoms: _248  and  _249
REMARK  109  A    between atoms: _254  and  _256
REMARK  110  A    between atoms: _256  and  _257
REMARK  111  A    between atoms: _256  and  _259
REMARK  112  A    between atoms: _259  and  _260
REMARK  113  A    between atoms: _263  and  _265
REMARK  114  A    between atoms: _265  and  _266
REMARK  115  A    between atoms: _269  and  _271
REMARK  116  A    between atoms: _271  and  _272
REMARK  117  A    between atoms: _271  and  _274
REMARK  118  A    between atoms: _274  and  _275
REMARK  119  A    between atoms: _278  and  _280
REMARK  120  A    between atoms: _280  and  _281
REMARK  121  A    between atoms: _284  and  _286
REMARK  122  A    between atoms: _286  and  _287
REMARK  123  A    between atoms: _286  and  _289
REMARK  124  A    between atoms: _292  and  _294
REMARK  125  A    between atoms: _294  and  _295
REMARK  126  A    between atoms: _294  and  _297
REMARK  127  A    between atoms: _297  and  _298
REMARK  128  A    between atoms: _298  and  _299
REMARK  129  A    between atoms: _302  and  _304
REMARK  130  A    between atoms: _304  and  _305
REMARK  131  A    between atoms: _304  and  _307
REMARK  132  A    between atoms: _307  and  _308
REMARK  133  A    between atoms: _308  and  _309
REMARK  134  A    between atoms: _309  and  _310
REMARK  135  A    between atoms: _319  and  _321
REMARK  136  A    between atoms: _321  and  _322
REMARK  137  A    between atoms: _321  and  _324
REMARK  138  A    between atoms: _324  and  _325
REMARK  139  A    between atoms: _331  and  _333
REMARK  140  A    between atoms: _333  and  _334
REMARK  141  A    between atoms: _333  and  _336
REMARK  142  A    between atoms: _336  and  _337
REMARK  143  A    between atoms: _340  and  _342
REMARK  144  A    between atoms: _342  and  _343
REMARK  145  A    between atoms: _342  and  _345
REMARK  146  A    between atoms: _345  and  _346
REMARK  147  A    between atoms: _346  and  _347
REMARK  148  A    between atoms: _347  and  _348
REMARK  149  A    between atoms: _357  and  _359
REMARK  150  A    between atoms: _359  and  _360
REMARK  151  A    between atoms: _359  and  _362
REMARK  152  A    between atoms: _362  and  _363
REMARK  153  A    between atoms: _366  and  _368
REMARK  154  A    between atoms: _368  and  _369
REMARK  155  A    between atoms: _368  and  _371
REMARK  156  A    between atoms: _371  and  _372
REMARK  157  A    between atoms: _372  and  _373
REMARK  158  A    between atoms: _378  and  _380
REMARK  159  A    between atoms: _380  and  _381
REMARK  160  A    between atoms: _380  and  _383
REMARK  161  A    between atoms: _383  and  _384
REMARK  162  A    between atoms: _384  and  _385
REMARK  163  A    between atoms: _388  and  _390
REMARK  164  A    between atoms: _390  and  _391
REMARK  165  A    between atoms: _390  and  _393
REMARK  166  A    between atoms: _393  and  _394
REMARK  167  A    between atoms: _397  and  _399
REMARK  168  A    between atoms: _399  and  _400
REMARK  169  A    between atoms: _399  and  _402
REMARK  170  A    between atoms: _402  and  _403
REMARK  171  A    between atoms: _403  and  _404
REMARK  172  A    between atoms: _406  and  _408
REMARK  173  A    between atoms: _408  and  _409
REMARK  174  A    between atoms: _408  and  _411
REMARK  175  A    between atoms: _413  and  _415
REMARK  176  A    between atoms: _415  and  _416
REMARK  177  A    between atoms: _415  and  _418
REMARK  178  A    between atoms: _418  and  _419
REMARK  179  A    between atoms: _419  and  _420
REMARK  180  A    between atoms: _425  and  _427
REMARK  181  A    between atoms: _427  and  _428
REMARK  182  A    between atoms: _427  and  _430
REMARK  183  A    between atoms: _430  and  _431
REMARK  184  A    between atoms: _431  and  _432
REMARK  185  A    between atoms: _432  and  _433
REMARK  186  A    between atoms: _433  and  _434
REMARK  187  A    between atoms: _438  and  _440
REMARK  188  A    between atoms: _440  and  _441
REMARK  189  A    between atoms: _440  and  _443
REMARK  190  A    between atoms: _443  and  _444
REMARK  191  A    between atoms: _449  and  _450
REMARK  192  A    between atoms: _452  and  _454
REMARK  193  A    between atoms: _454  and  _455
REMARK  194  A    between atoms: _454  and  _457
REMARK  195  A    between atoms: _457  and  _458
REMARK  196  A    between atoms: _458  and  _459
REMARK  197  A    between atoms: _464  and  _466
REMARK  198  A    between atoms: _466  and  _467
REMARK  199  A    between atoms: _469  and  _471
REMARK  200  A    between atoms: _471  and  _472
REMARK  201  A    between atoms: _471  and  _474
REMARK  202  A    between atoms: _474  and  _475
REMARK  203  A    between atoms: _480  and  _482
REMARK  204  A    between atoms: _482  and  _483
REMARK  205  A    between atoms: _486  and  _488
REMARK  206  A    between atoms: _488  and  _489
REMARK  207  A    between atoms: _488  and  _491
REMARK  208  A    between atoms: _491  and  _492
REMARK  209  A    between atoms: _492  and  _493
REMARK  210  A    between atoms: _493  and  _494
REMARK  211  A    between atoms: _494  and  _495
REMARK  212  A    between atoms: _499  and  _501
REMARK  213  A    between atoms: _501  and  _502
REMARK  214  A    between atoms: _501  and  _504
REMARK  215  A    between atoms: _504  and  _505
REMARK  216  A    between atoms: _505  and  _506
REMARK  217  A    between atoms: _505  and  _507
REMARK  218  A    between atoms: _506  and  MG_619
REMARK  219  A    between atoms: _510  and  _512
REMARK  220  A    between atoms: _512  and  _513
REMARK  221  A    between atoms: _512  and  _515
REMARK  222  A    between atoms: _515  and  _516
REMARK  223  A    between atoms: _522  and  _524
REMARK  224  A    between atoms: _524  and  _525
REMARK  225  A    between atoms: _524  and  _527
REMARK  226  A    between atoms: _527  and  _528
REMARK  227  A    between atoms: _530  and  _532
REMARK  228  A    between atoms: _532  and  _533
REMARK  229  A    between atoms: _532  and  _535
REMARK  230  A    between atoms: _538  and  _540
REMARK  231  A    between atoms: _540  and  _541
REMARK  232  A    between atoms: _540  and  _543
REMARK  233  A    between atoms: _543  and  _544
REMARK  234  A    between atoms: _550  and  _552
REMARK  235  A    between atoms: _552  and  _553
REMARK  236  A    between atoms: _552  and  _555
REMARK  237  A    between atoms: _555  and  _556
REMARK  238  A    between atoms: _560  and  _561
REMARK  239  A    between atoms: _566  and  _568
REMARK  240  A    between atoms: _568  and  _569
REMARK  241  A    between atoms: _568  and  _571
REMARK  242  A    between atoms: _571  and  _572
REMARK  243  A    between atoms: _578  and  _580
REMARK  244  A    between atoms: _580  and  _581
REMARK  245  A    between atoms: _580  and  _583
REMARK  246  A    between atoms: _583  and  _584
REMARK  247  A    between atoms: _589  and  _590
REMARK  248  A    between atoms: _592  and  _594
REMARK  249  A    between atoms: _594  and  _595
REMARK  250  A    between atoms: _594  and  _597
REMARK  251  A    between atoms: _597  and  _598
REMARK  252  A    between atoms: _598  and  _599
REMARK  253  A    between atoms: _601  and  _603
REMARK  254  A    between atoms: _603  and  _604
REMARK  255  A    between atoms: _603  and  _606
REMARK  256  A    between atoms: _606  and  _607
REMARK  257  A    between atoms: _610  and  _612
REMARK  258  A    between atoms: _612  and  _613
REMARK  259  A    between atoms: _612  and  _615
REMARK  260  A    between atoms: _615  and  _616
REMARK                            x       y       z     vdW  Elec       q    Type
REMARK                         _______ _______ _______ _____ _____    ______ ____
ROOT
ATOM      1  O   HOH     1      -2.928   6.464  64.959  0.00  0.00    +0.000 OA
ENDROOT
TORSDOF 0
REMARK  Name = ../refined-set-2016/3dnt/3dnt_pocket.pdb
REMARK  260 active torsions:
REMARK  status: ('A' for Active; 'I' for Inactive)
REMARK    1  A    between atoms: _1  and  _3
REMARK    2  A    between atoms: _3  and  _4
REMARK    3  A    between atoms: _3  and  _6
REMARK    4  A    between atoms: _6  and  _7
REMARK    5  A    between atoms: _12  and  _14
REMARK    6  A    between atoms: _14  and  _15
REMARK    7  A    between atoms: _14  and  _17
REMARK    8  A    between atoms: _17  and  _18
REMARK    9  A    between atoms: _21  and  _23
REMARK   10  A    between atoms: _23  and  _24
REMARK   11  A    between atoms: _23  and  _26
REMARK   12  A    between atoms: _26  and  _27
REMARK   13  A    between atoms: _31  and  _32
REMARK   14  A    between atoms: _37  and  _39
REMARK   15  A    between atoms: _39  and  _40
REMARK   16  A    between atoms: _39  and  _42
REMARK   17  A    between atoms: _42  and  _43
REMARK   18  A    between atoms: _46  and  _48
REMARK   19  A    between atoms: _48  and  _49
REMARK   20  A    between atoms: _48  and  _51
REMARK   21  A    between atoms: _51  and  _52
REMARK   22  A    between atoms: _54  and  _56
REMARK   23  A    between atoms: _56  and  _57
REMARK   24  A    between atoms: _56  and  _59
REMARK   25  A    between atoms: _59  and  _60
REMARK   26  A    between atoms: _62  and  _64
REMARK   27  A    between atoms: _64  and  _65
REMARK   28  A    between atoms: _64  and  _67
REMARK   29  A    between atoms: _70  and  _72
REMARK   30  A    between atoms: _72  and  _73
REMARK   31  A    between atoms: _75  and  _77
REMARK   32  A    between atoms: _77  and  _78
REMARK   33  A    between atoms: _77  and  _80
REMARK   34  A    between atoms: _80  and  _81
REMARK   35  A    between atoms: _83  and  _85
REMARK   36  A    between atoms: _85  and  _86
REMARK   37  A    between atoms: _85  and  _88
REMARK   38  A    between atoms: _91  and  _93
REMARK   39  A    between atoms: _93  and  _94
REMARK   40  A    between atoms: _97  and  _99
REMARK   41  A    between atoms: _99  and  _100
REMARK   42  A    between atoms: _102  and  _104
REMARK   43  A    between atoms: _104  and  _105
REMARK   44  A    between atoms: _108  and  _110
REMARK   45  A    between atoms: _110  and  _111
REMARK   46  A    between atoms: _110  and  _113
REMARK   47  A    between atoms: _113  and  _114
REMARK   48  A    between atoms: _114  and  _115
REMARK   49  A    between atoms: _120  and  _122
REMARK   50  A    between atoms: _122  and  _123
REMARK   51  A    between atoms: _122  and  _125
REMARK   52  A    between atoms: _125  and  _126
REMARK   53  A    between atoms: _126  and  _127
REMARK   54  A    between atoms: _130  and  _132
REMARK   55  A    between atoms: _132  and  _133
REMARK   56  A    between atoms: _132  and  _135
REMARK   57  A    between atoms: _135  and  _136
REMARK   58  A    between atoms: _136  and  _137
REMARK   59  A    between atoms: _137  and  _138
REMARK   60  A    between atoms: _138  and  _139
REMARK   61  A    between atoms: _143  and  _145
REMARK   62  A    between atoms: _145  and  _146
REMARK   63  A    between atoms: _145  and  _148
REMARK   64  A    between atoms: _148  and  _149
REMARK   65  A    between atoms: _152  and  _154
REMARK   66  A    between atoms: _154  and  _155
REMARK   67  A    between atoms: _154  and  _157
REMARK   68  A    between atoms: _157  and  _158
REMARK   69  A    between atoms: _163  and  _165
REMARK   70  A    between atoms: _165  and  _166
REMARK   71  A    between atoms: _165  and  _168
REMARK   72  A    between atoms: _168  and  _169
REMARK   73  A    between atoms: _172  and  _174
REMARK   74  A    between atoms: _174  and  _175
REMARK   75  A    between atoms: _174  and  _177
REMARK   76  A    between atoms: _177  and  _178
REMARK   77  A    between atoms: _181  and  _183
REMARK   78  A    between atoms: _183  and  _184
REMARK   79  A    between atoms: _183  and  _186
REMARK   80  A    between atoms: _186  and  _187
REMARK   81  A    between atoms: _187  and  _188
REMARK   82  A    between atoms: _188  and  _189
REMARK   83  A    between atoms: _189  and  _190
REMARK   84  A    between atoms: _194  and  _196
REMARK   85  A    between atoms: _196  and  _197
REMARK   86  A    between atoms: _196  and  _199
REMARK   87  A    between atoms: _199  and  _200
REMARK   88  A    between atoms: _203  and  _205
REMARK   89  A    between atoms: _205  and  _206
REMARK   90  A    between atoms: _205  and  _208
REMARK   91  A    between atoms: _208  and  _209
REMARK   92  A    between atoms: _212  and  _214
REMARK   93  A    between atoms: _214  and  _215
REMARK   94  A    between atoms: _214  and  _217
REMARK   95  A    between atoms: _217  and  _218
REMARK   96  A    between atoms: _220  and  _222
REMARK   97  A    between atoms: _222  and  _223
REMARK   98  A    between atoms: _222  and  _225
REMARK   99  A    between atoms: _225  and  _226
REMARK  100  A    between atoms: _226  and  _227
REMARK  101  A    between atoms: _230  and  _232
REMARK  102  A    between atoms: _232  and  _233
REMARK  103  A    between atoms: _232  and  _235
REMARK  104  A    between atoms: _235  and  _236
REMARK  105  A    between atoms: _239  and  _241
REMARK  106  A    between atoms: _241  and  _242
REMARK  107  A    between atoms: _241  and  _244
REMARK  108  A    between atoms: _248  and  _249
REMARK  109  A    between atoms: _254  and  _256
REMARK  110  A    between atoms: _256  and  _257
REMARK  111  A    between atoms: _256  and  _259
REMARK  112  A    between atoms: _259  and  _260
REMARK  113  A    between atoms: _263  and  _265
REMARK  114  A    between atoms: _265  and  _266
REMARK  115  A    between atoms: _269  and  _271
REMARK  116  A    between atoms: _271  and  _272
REMARK  117  A    between atoms: _271  and  _274
REMARK  118  A    between atoms: _274  and  _275
REMARK  119  A    between atoms: _278  and  _280
REMARK  120  A    between atoms: _280  and  _281
REMARK  121  A    between atoms: _284  and  _286
REMARK  122  A    between atoms: _286  and  _287
REMARK  123  A    between atoms: _286  and  _289
REMARK  124  A    between atoms: _292  and  _294
REMARK  125  A    between atoms: _294  and  _295
REMARK  126  A    between atoms: _294  and  _297
REMARK  127  A    between atoms: _297  and  _298
REMARK  128  A    between atoms: _298  and  _299
REMARK  129  A    between atoms: _302  and  _304
REMARK  130  A    between atoms: _304  and  _305
REMARK  131  A    between atoms: _304  and  _307
REMARK  132  A    between atoms: _307  and  _308
REMARK  133  A    between atoms: _308  and  _309
REMARK  134  A    between atoms: _309  and  _310
REMARK  135  A    between atoms: _319  and  _321
REMARK  136  A    between atoms: _321  and  _322
REMARK  137  A    between atoms: _321  and  _324
REMARK  138  A    between atoms: _324  and  _325
REMARK  139  A    between atoms: _331  and  _333
REMARK  140  A    between atoms: _333  and  _334
REMARK  141  A    between atoms: _333  and  _336
REMARK  142  A    between atoms: _336  and  _337
REMARK  143  A    between atoms: _340  and  _342
REMARK  144  A    between atoms: _342  and  _343
REMARK  145  A    between atoms: _342  and  _345
REMARK  146  A    between atoms: _345  and  _346
REMARK  147  A    between atoms: _346  and  _347
REMARK  148  A    between atoms: _347  and  _348
REMARK  149  A    between atoms: _357  and  _359
REMARK  150  A    between atoms: _359  and  _360
REMARK  151  A    between atoms: _359  and  _362
REMARK  152  A    between atoms: _362  and  _363
REMARK  153  A    between atoms: _366  and  _368
REMARK  154  A    between atoms: _368  and  _369
REMARK  155  A    between atoms: _368  and  _371
REMARK  156  A    between atoms: _371  and  _372
REMARK  157  A    between atoms: _372  and  _373
REMARK  158  A    between atoms: _378  and  _380
REMARK  159  A    between atoms: _380  and  _381
REMARK  160  A    between atoms: _380  and  _383
REMARK  161  A    between atoms: _383  and  _384
REMARK  162  A    between atoms: _384  and  _385
REMARK  163  A    between atoms: _388  and  _390
REMARK  164  A    between atoms: _390  and  _391
REMARK  165  A    between atoms: _390  and  _393
REMARK  166  A    between atoms: _393  and  _394
REMARK  167  A    between atoms: _397  and  _399
REMARK  168  A    between atoms: _399  and  _400
REMARK  169  A    between atoms: _399  and  _402
REMARK  170  A    between atoms: _402  and  _403
REMARK  171  A    between atoms: _403  and  _404
REMARK  172  A    between atoms: _406  and  _408
REMARK  173  A    between atoms: _408  and  _409
REMARK  174  A    between atoms: _408  and  _411
REMARK  175  A    between atoms: _413  and  _415
REMARK  176  A    between atoms: _415  and  _416
REMARK  177  A    between atoms: _415  and  _418
REMARK  178  A    between atoms: _418  and  _419
REMARK  179  A    between atoms: _419  and  _420
REMARK  180  A    between atoms: _425  and  _427
REMARK  181  A    between atoms: _427  and  _428
REMARK  182  A    between atoms: _427  and  _430
REMARK  183  A    between atoms: _430  and  _431
REMARK  184  A    between atoms: _431  and  _432
REMARK  185  A    between atoms: _432  and  _433
REMARK  186  A    between atoms: _433  and  _434
REMARK  187  A    between atoms: _438  and  _440
REMARK  188  A    between atoms: _440  and  _441
REMARK  189  A    between atoms: _440  and  _443
REMARK  190  A    between atoms: _443  and  _444
REMARK  191  A    between atoms: _449  and  _450
REMARK  192  A    between atoms: _452  and  _454
REMARK  193  A    between atoms: _454  and  _455
REMARK  194  A    between atoms: _454  and  _457
REMARK  195  A    between atoms: _457  and  _458
REMARK  196  A    between atoms: _458  and  _459
REMARK  197  A    between atoms: _464  and  _466
REMARK  198  A    between atoms: _466  and  _467
REMARK  199  A    between atoms: _469  and  _471
REMARK  200  A    between atoms: _471  and  _472
REMARK  201  A    between atoms: _471  and  _474
REMARK  202  A    between atoms: _474  and  _475
REMARK  203  A    between atoms: _480  and  _482
REMARK  204  A    between atoms: _482  and  _483
REMARK  205  A    between atoms: _486  and  _488
REMARK  206  A    between atoms: _488  and  _489
REMARK  207  A    between atoms: _488  and  _491
REMARK  208  A    between atoms: _491  and  _492
REMARK  209  A    between atoms: _492  and  _493
REMARK  210  A    between atoms: _493  and  _494
REMARK  211  A    between atoms: _494  and  _495
REMARK  212  A    between atoms: _499  and  _501
REMARK  213  A    between atoms: _501  and  _502
REMARK  214  A    between atoms: _501  and  _504
REMARK  215  A    between atoms: _504  and  _505
REMARK  216  A    between atoms: _505  and  _506
REMARK  217  A    between atoms: _505  and  _507
REMARK  218  A    between atoms: _506  and  MG_619
REMARK  219  A    between atoms: _510  and  _512
REMARK  220  A    between atoms: _512  and  _513
REMARK  221  A    between atoms: _512  and  _515
REMARK  222  A    between atoms: _515  and  _516
REMARK  223  A    between atoms: _522  and  _524
REMARK  224  A    between atoms: _524  and  _525
REMARK  225  A    between atoms: _524  and  _527
REMARK  226  A    between atoms: _527  and  _528
REMARK  227  A    between atoms: _530  and  _532
REMARK  228  A    between atoms: _532  and  _533
REMARK  229  A    between atoms: _532  and  _535
REMARK  230  A    between atoms: _538  and  _540
REMARK  231  A    between atoms: _540  and  _541
REMARK  232  A    between atoms: _540  and  _543
REMARK  233  A    between atoms: _543  and  _544
REMARK  234  A    between atoms: _550  and  _552
REMARK  235  A    between atoms: _552  and  _553
REMARK  236  A    between atoms: _552  and  _555
REMARK  237  A    between atoms: _555  and  _556
REMARK  238  A    between atoms: _560  and  _561
REMARK  239  A    between atoms: _566  and  _568
REMARK  240  A    between atoms: _568  and  _569
REMARK  241  A    between atoms: _568  and  _571
REMARK  242  A    between atoms: _571  and  _572
REMARK  243  A    between atoms: _578  and  _580
REMARK  244  A    between atoms: _580  and  _581
REMARK  245  A    between atoms: _580  and  _583
REMARK  246  A    between atoms: _583  and  _584
REMARK  247  A    between atoms: _589  and  _590
REMARK  248  A    between atoms: _592  and  _594
REMARK  249  A    between atoms: _594  and  _595
REMARK  250  A    between atoms: _594  and  _597
REMARK  251  A    between atoms: _597  and  _598
REMARK  252  A    between atoms: _598  and  _599
REMARK  253  A    between atoms: _601  and  _603
REMARK  254  A    between atoms: _603  and  _604
REMARK  255  A    between atoms: _603  and  _606
REMARK  256  A    between atoms: _606  and  _607
REMARK  257  A    between atoms: _610  and  _612
REMARK  258  A    between atoms: _612  and  _613
REMARK  259  A    between atoms: _612  and  _615
REMARK  260  A    between atoms: _615  and  _616
REMARK                            x       y       z     vdW  Elec       q    Type
REMARK                         _______ _______ _______ _____ _____    ______ ____
ROOT
ATOM      1  O   HOH     1      -2.998   4.533  50.050  0.00  0.00    +0.000 OA
ENDROOT
TORSDOF 0
REMARK  Name = ../refined-set-2016/3dnt/3dnt_pocket.pdb
REMARK  260 active torsions:
REMARK  status: ('A' for Active; 'I' for Inactive)
REMARK    1  A    between atoms: _1  and  _3
REMARK    2  A    between atoms: _3  and  _4
REMARK    3  A    between atoms: _3  and  _6
REMARK    4  A    between atoms: _6  and  _7
REMARK    5  A    between atoms: _12  and  _14
REMARK    6  A    between atoms: _14  and  _15
REMARK    7  A    between atoms: _14  and  _17
REMARK    8  A    between atoms: _17  and  _18
REMARK    9  A    between atoms: _21  and  _23
REMARK   10  A    between atoms: _23  and  _24
REMARK   11  A    between atoms: _23  and  _26
REMARK   12  A    between atoms: _26  and  _27
REMARK   13  A    between atoms: _31  and  _32
REMARK   14  A    between atoms: _37  and  _39
REMARK   15  A    between atoms: _39  and  _40
REMARK   16  A    between atoms: _39  and  _42
REMARK   17  A    between atoms: _42  and  _43
REMARK   18  A    between atoms: _46  and  _48
REMARK   19  A    between atoms: _48  and  _49
REMARK   20  A    between atoms: _48  and  _51
REMARK   21  A    between atoms: _51  and  _52
REMARK   22  A    between atoms: _54  and  _56
REMARK   23  A    between atoms: _56  and  _57
REMARK   24  A    between atoms: _56  and  _59
REMARK   25  A    between atoms: _59  and  _60
REMARK   26  A    between atoms: _62  and  _64
REMARK   27  A    between atoms: _64  and  _65
REMARK   28  A    between atoms: _64  and  _67
REMARK   29  A    between atoms: _70  and  _72
REMARK   30  A    between atoms: _72  and  _73
REMARK   31  A    between atoms: _75  and  _77
REMARK   32  A    between atoms: _77  and  _78
REMARK   33  A    between atoms: _77  and  _80
REMARK   34  A    between atoms: _80  and  _81
REMARK   35  A    between atoms: _83  and  _85
REMARK   36  A    between atoms: _85  and  _86
REMARK   37  A    between atoms: _85  and  _88
REMARK   38  A    between atoms: _91  and  _93
REMARK   39  A    between atoms: _93  and  _94
REMARK   40  A    between atoms: _97  and  _99
REMARK   41  A    between atoms: _99  and  _100
REMARK   42  A    between atoms: _102  and  _104
REMARK   43  A    between atoms: _104  and  _105
REMARK   44  A    between atoms: _108  and  _110
REMARK   45  A    between atoms: _110  and  _111
REMARK   46  A    between atoms: _110  and  _113
REMARK   47  A    between atoms: _113  and  _114
REMARK   48  A    between atoms: _114  and  _115
REMARK   49  A    between atoms: _120  and  _122
REMARK   50  A    between atoms: _122  and  _123
REMARK   51  A    between atoms: _122  and  _125
REMARK   52  A    between atoms: _125  and  _126
REMARK   53  A    between atoms: _126  and  _127
REMARK   54  A    between atoms: _130  and  _132
REMARK   55  A    between atoms: _132  and  _133
REMARK   56  A    between atoms: _132  and  _135
REMARK   57  A    between atoms: _135  and  _136
REMARK   58  A    between atoms: _136  and  _137
REMARK   59  A    between atoms: _137  and  _138
REMARK   60  A    between atoms: _138  and  _139
REMARK   61  A    between atoms: _143  and  _145
REMARK   62  A    between atoms: _145  and  _146
REMARK   63  A    between atoms: _145  and  _148
REMARK   64  A    between atoms: _148  and  _149
REMARK   65  A    between atoms: _152  and  _154
REMARK   66  A    between atoms: _154  and  _155
REMARK   67  A    between atoms: _154  and  _157
REMARK   68  A    between atoms: _157  and  _158
REMARK   69  A    between atoms: _163  and  _165
REMARK   70  A    between atoms: _165  and  _166
REMARK   71  A    between atoms: _165  and  _168
REMARK   72  A    between atoms: _168  and  _169
REMARK   73  A    between atoms: _172  and  _174
REMARK   74  A    between atoms: _174  and  _175
REMARK   75  A    between atoms: _174  and  _177
REMARK   76  A    between atoms: _177  and  _178
REMARK   77  A    between atoms: _181  and  _183
REMARK   78  A    between atoms: _183  and  _184
REMARK   79  A    between atoms: _183  and  _186
REMARK   80  A    between atoms: _186  and  _187
REMARK   81  A    between atoms: _187  and  _188
REMARK   82  A    between atoms: _188  and  _189
REMARK   83  A    between atoms: _189  and  _190
REMARK   84  A    between atoms: _194  and  _196
REMARK   85  A    between atoms: _196  and  _197
REMARK   86  A    between atoms: _196  and  _199
REMARK   87  A    between atoms: _199  and  _200
REMARK   88  A    between atoms: _203  and  _205
REMARK   89  A    between atoms: _205  and  _206
REMARK   90  A    between atoms: _205  and  _208
REMARK   91  A    between atoms: _208  and  _209
REMARK   92  A    between atoms: _212  and  _214
REMARK   93  A    between atoms: _214  and  _215
REMARK   94  A    between atoms: _214  and  _217
REMARK   95  A    between atoms: _217  and  _218
REMARK   96  A    between atoms: _220  and  _222
REMARK   97  A    between atoms: _222  and  _223
REMARK   98  A    between atoms: _222  and  _225
REMARK   99  A    between atoms: _225  and  _226
REMARK  100  A    between atoms: _226  and  _227
REMARK  101  A    between atoms: _230  and  _232
REMARK  102  A    between atoms: _232  and  _233
REMARK  103  A    between atoms: _232  and  _235
REMARK  104  A    between atoms: _235  and  _236
REMARK  105  A    between atoms: _239  and  _241
REMARK  106  A    between atoms: _241  and  _242
REMARK  107  A    between atoms: _241  and  _244
REMARK  108  A    between atoms: _248  and  _249
REMARK  109  A    between atoms: _254  and  _256
REMARK  110  A    between atoms: _256  and  _257
REMARK  111  A    between atoms: _256  and  _259
REMARK  112  A    between atoms: _259  and  _260
REMARK  113  A    between atoms: _263  and  _265
REMARK  114  A    between atoms: _265  and  _266
REMARK  115  A    between atoms: _269  and  _271
REMARK  116  A    between atoms: _271  and  _272
REMARK  117  A    between atoms: _271  and  _274
REMARK  118  A    between atoms: _274  and  _275
REMARK  119  A    between atoms: _278  and  _280
REMARK  120  A    between atoms: _280  and  _281
REMARK  121  A    between atoms: _284  and  _286
REMARK  122  A    between atoms: _286  and  _287
REMARK  123  A    between atoms: _286  and  _289
REMARK  124  A    between atoms: _292  and  _294
REMARK  125  A    between atoms: _294  and  _295
REMARK  126  A    between atoms: _294  and  _297
REMARK  127  A    between atoms: _297  and  _298
REMARK  128  A    between atoms: _298  and  _299
REMARK  129  A    between atoms: _302  and  _304
REMARK  130  A    between atoms: _304  and  _305
REMARK  131  A    between atoms: _304  and  _307
REMARK  132  A    between atoms: _307  and  _308
REMARK  133  A    between atoms: _308  and  _309
REMARK  134  A    between atoms: _309  and  _310
REMARK  135  A    between atoms: _319  and  _321
REMARK  136  A    between atoms: _321  and  _322
REMARK  137  A    between atoms: _321  and  _324
REMARK  138  A    between atoms: _324  and  _325
REMARK  139  A    between atoms: _331  and  _333
REMARK  140  A    between atoms: _333  and  _334
REMARK  141  A    between atoms: _333  and  _336
REMARK  142  A    between atoms: _336  and  _337
REMARK  143  A    between atoms: _340  and  _342
REMARK  144  A    between atoms: _342  and  _343
REMARK  145  A    between atoms: _342  and  _345
REMARK  146  A    between atoms: _345  and  _346
REMARK  147  A    between atoms: _346  and  _347
REMARK  148  A    between atoms: _347  and  _348
REMARK  149  A    between atoms: _357  and  _359
REMARK  150  A    between atoms: _359  and  _360
REMARK  151  A    between atoms: _359  and  _362
REMARK  152  A    between atoms: _362  and  _363
REMARK  153  A    between atoms: _366  and  _368
REMARK  154  A    between atoms: _368  and  _369
REMARK  155  A    between atoms: _368  and  _371
REMARK  156  A    between atoms: _371  and  _372
REMARK  157  A    between atoms: _372  and  _373
REMARK  158  A    between atoms: _378  and  _380
REMARK  159  A    between atoms: _380  and  _381
REMARK  160  A    between atoms: _380  and  _383
REMARK  161  A    between atoms: _383  and  _384
REMARK  162  A    between atoms: _384  and  _385
REMARK  163  A    between atoms: _388  and  _390
REMARK  164  A    between atoms: _390  and  _391
REMARK  165  A    between atoms: _390  and  _393
REMARK  166  A    between atoms: _393  and  _394
REMARK  167  A    between atoms: _397  and  _399
REMARK  168  A    between atoms: _399  and  _400
REMARK  169  A    between atoms: _399  and  _402
REMARK  170  A    between atoms: _402  and  _403
REMARK  171  A    between atoms: _403  and  _404
REMARK  172  A    between atoms: _406  and  _408
REMARK  173  A    between atoms: _408  and  _409
REMARK  174  A    between atoms: _408  and  _411
REMARK  175  A    between atoms: _413  and  _415
REMARK  176  A    between atoms: _415  and  _416
REMARK  177  A    between atoms: _415  and  _418
REMARK  178  A    between atoms: _418  and  _419
REMARK  179  A    between atoms: _419  and  _420
REMARK  180  A    between atoms: _425  and  _427
REMARK  181  A    between atoms: _427  and  _428
REMARK  182  A    between atoms: _427  and  _430
REMARK  183  A    between atoms: _430  and  _431
REMARK  184  A    between atoms: _431  and  _432
REMARK  185  A    between atoms: _432  and  _433
REMARK  186  A    between atoms: _433  and  _434
REMARK  187  A    between atoms: _438  and  _440
REMARK  188  A    between atoms: _440  and  _441
REMARK  189  A    between atoms: _440  and  _443
REMARK  190  A    between atoms: _443  and  _444
REMARK  191  A    between atoms: _449  and  _450
REMARK  192  A    between atoms: _452  and  _454
REMARK  193  A    between atoms: _454  and  _455
REMARK  194  A    between atoms: _454  and  _457
REMARK  195  A    between atoms: _457  and  _458
REMARK  196  A    between atoms: _458  and  _459
REMARK  197  A    between atoms: _464  and  _466
REMARK  198  A    between atoms: _466  and  _467
REMARK  199  A    between atoms: _469  and  _471
REMARK  200  A    between atoms: _471  and  _472
REMARK  201  A    between atoms: _471  and  _474
REMARK  202  A    between atoms: _474  and  _475
REMARK  203  A    between atoms: _480  and  _482
REMARK  204  A    between atoms: _482  and  _483
REMARK  205  A    between atoms: _486  and  _488
REMARK  206  A    between atoms: _488  and  _489
REMARK  207  A    between atoms: _488  and  _491
REMARK  208  A    between atoms: _491  and  _492
REMARK  209  A    between atoms: _492  and  _493
REMARK  210  A    between atoms: _493  and  _494
REMARK  211  A    between atoms: _494  and  _495
REMARK  212  A    between atoms: _499  and  _501
REMARK  213  A    between atoms: _501  and  _502
REMARK  214  A    between atoms: _501  and  _504
REMARK  215  A    between atoms: _504  and  _505
REMARK  216  A    between atoms: _505  and  _506
REMARK  217  A    between atoms: _505  and  _507
REMARK  218  A    between atoms: _506  and  MG_619
REMARK  219  A    between atoms: _510  and  _512
REMARK  220  A    between atoms: _512  and  _513
REMARK  221  A    between atoms: _512  and  _515
REMARK  222  A    between atoms: _515  and  _516
REMARK  223  A    between atoms: _522  and  _524
REMARK  224  A    between atoms: _524  and  _525
REMARK  225  A    between atoms: _524  and  _527
REMARK  226  A    between atoms: _527  and  _528
REMARK  227  A    between atoms: _530  and  _532
REMARK  228  A    between atoms: _532  and  _533
REMARK  229  A    between atoms: _532  and  _535
REMARK  230  A    between atoms: _538  and  _540
REMARK  231  A    between atoms: _540  and  _541
REMARK  232  A    between atoms: _540  and  _543
REMARK  233  A    between atoms: _543  and  _544
REMARK  234  A    between atoms: _550  and  _552
REMARK  235  A    between atoms: _552  and  _553
REMARK  236  A    between atoms: _552  and  _555
REMARK  237  A    between atoms: _555  and  _556
REMARK  238  A    between atoms: _560  and  _561
REMARK  239  A    between atoms: _566  and  _568
REMARK  240  A    between atoms: _568  and  _569
REMARK  241  A    between atoms: _568  and  _571
REMARK  242  A    between atoms: _571  and  _572
REMARK  243  A    between atoms: _578  and  _580
REMARK  244  A    between atoms: _580  and  _581
REMARK  245  A    between atoms: _580  and  _583
REMARK  246  A    between atoms: _583  and  _584
REMARK  247  A    between atoms: _589  and  _590
REMARK  248  A    between atoms: _592  and  _594
REMARK  249  A    between atoms: _594  and  _595
REMARK  250  A    between atoms: _594  and  _597
REMARK  251  A    between atoms: _597  and  _598
REMARK  252  A    between atoms: _598  and  _599
REMARK  253  A    between atoms: _601  and  _603
REMARK  254  A    between atoms: _603  and  _604
REMARK  255  A    between atoms: _603  and  _606
REMARK  256  A    between atoms: _606  and  _607
REMARK  257  A    between atoms: _610  and  _612
REMARK  258  A    between atoms: _612  and  _613
REMARK  259  A    between atoms: _612  and  _615
REMARK  260  A    between atoms: _615  and  _616
REMARK                            x       y       z     vdW  Elec       q    Type
REMARK                         _______ _______ _______ _____ _____    ______ ____
ROOT
ATOM      1  O   HOH     1      -3.321   8.207  67.086  0.00  0.00    +0.000 OA
ENDROOT
TORSDOF 0
REMARK  Name = ../refined-set-2016/3dnt/3dnt_pocket.pdb
REMARK  260 active torsions:
REMARK  status: ('A' for Active; 'I' for Inactive)
REMARK    1  A    between atoms: _1  and  _3
REMARK    2  A    between atoms: _3  and  _4
REMARK    3  A    between atoms: _3  and  _6
REMARK    4  A    between atoms: _6  and  _7
REMARK    5  A    between atoms: _12  and  _14
REMARK    6  A    between atoms: _14  and  _15
REMARK    7  A    between atoms: _14  and  _17
REMARK    8  A    between atoms: _17  and  _18
REMARK    9  A    between atoms: _21  and  _23
REMARK   10  A    between atoms: _23  and  _24
REMARK   11  A    between atoms: _23  and  _26
REMARK   12  A    between atoms: _26  and  _27
REMARK   13  A    between atoms: _31  and  _32
REMARK   14  A    between atoms: _37  and  _39
REMARK   15  A    between atoms: _39  and  _40
REMARK   16  A    between atoms: _39  and  _42
REMARK   17  A    between atoms: _42  and  _43
REMARK   18  A    between atoms: _46  and  _48
REMARK   19  A    between atoms: _48  and  _49
REMARK   20  A    between atoms: _48  and  _51
REMARK   21  A    between atoms: _51  and  _52
REMARK   22  A    between atoms: _54  and  _56
REMARK   23  A    between atoms: _56  and  _57
REMARK   24  A    between atoms: _56  and  _59
REMARK   25  A    between atoms: _59  and  _60
REMARK   26  A    between atoms: _62  and  _64
REMARK   27  A    between atoms: _64  and  _65
REMARK   28  A    between atoms: _64  and  _67
REMARK   29  A    between atoms: _70  and  _72
REMARK   30  A    between atoms: _72  and  _73
REMARK   31  A    between atoms: _75  and  _77
REMARK   32  A    between atoms: _77  and  _78
REMARK   33  A    between atoms: _77  and  _80
REMARK   34  A    between atoms: _80  and  _81
REMARK   35  A    between atoms: _83  and  _85
REMARK   36  A    between atoms: _85  and  _86
REMARK   37  A    between atoms: _85  and  _88
REMARK   38  A    between atoms: _91  and  _93
REMARK   39  A    between atoms: _93  and  _94
REMARK   40  A    between atoms: _97  and  _99
REMARK   41  A    between atoms: _99  and  _100
REMARK   42  A    between atoms: _102  and  _104
REMARK   43  A    between atoms: _104  and  _105
REMARK   44  A    between atoms: _108  and  _110
REMARK   45  A    between atoms: _110  and  _111
REMARK   46  A    between atoms: _110  and  _113
REMARK   47  A    between atoms: _113  and  _114
REMARK   48  A    between atoms: _114  and  _115
REMARK   49  A    between atoms: _120  and  _122
REMARK   50  A    between atoms: _122  and  _123
REMARK   51  A    between atoms: _122  and  _125
REMARK   52  A    between atoms: _125  and  _126
REMARK   53  A    between atoms: _126  and  _127
REMARK   54  A    between atoms: _130  and  _132
REMARK   55  A    between atoms: _132  and  _133
REMARK   56  A    between atoms: _132  and  _135
REMARK   57  A    between atoms: _135  and  _136
REMARK   58  A    between atoms: _136  and  _137
REMARK   59  A    between atoms: _137  and  _138
REMARK   60  A    between atoms: _138  and  _139
REMARK   61  A    between atoms: _143  and  _145
REMARK   62  A    between atoms: _145  and  _146
REMARK   63  A    between atoms: _145  and  _148
REMARK   64  A    between atoms: _148  and  _149
REMARK   65  A    between atoms: _152  and  _154
REMARK   66  A    between atoms: _154  and  _155
REMARK   67  A    between atoms: _154  and  _157
REMARK   68  A    between atoms: _157  and  _158
REMARK   69  A    between atoms: _163  and  _165
REMARK   70  A    between atoms: _165  and  _166
REMARK   71  A    between atoms: _165  and  _168
REMARK   72  A    between atoms: _168  and  _169
REMARK   73  A    between atoms: _172  and  _174
REMARK   74  A    between atoms: _174  and  _175
REMARK   75  A    between atoms: _174  and  _177
REMARK   76  A    between atoms: _177  and  _178
REMARK   77  A    between atoms: _181  and  _183
REMARK   78  A    between atoms: _183  and  _184
REMARK   79  A    between atoms: _183  and  _186
REMARK   80  A    between atoms: _186  and  _187
REMARK   81  A    between atoms: _187  and  _188
REMARK   82  A    between atoms: _188  and  _189
REMARK   83  A    between atoms: _189  and  _190
REMARK   84  A    between atoms: _194  and  _196
REMARK   85  A    between atoms: _196  and  _197
REMARK   86  A    between atoms: _196  and  _199
REMARK   87  A    between atoms: _199  and  _200
REMARK   88  A    between atoms: _203  and  _205
REMARK   89  A    between atoms: _205  and  _206
REMARK   90  A    between atoms: _205  and  _208
REMARK   91  A    between atoms: _208  and  _209
REMARK   92  A    between atoms: _212  and  _214
REMARK   93  A    between atoms: _214  and  _215
REMARK   94  A    between atoms: _214  and  _217
REMARK   95  A    between atoms: _217  and  _218
REMARK   96  A    between atoms: _220  and  _222
REMARK   97  A    between atoms: _222  and  _223
REMARK   98  A    between atoms: _222  and  _225
REMARK   99  A    between atoms: _225  and  _226
REMARK  100  A    between atoms: _226  and  _227
REMARK  101  A    between atoms: _230  and  _232
REMARK  102  A    between atoms: _232  and  _233
REMARK  103  A    between atoms: _232  and  _235
REMARK  104  A    between atoms: _235  and  _236
REMARK  105  A    between atoms: _239  and  _241
REMARK  106  A    between atoms: _241  and  _242
REMARK  107  A    between atoms: _241  and  _244
REMARK  108  A    between atoms: _248  and  _249
REMARK  109  A    between atoms: _254  and  _256
REMARK  110  A    between atoms: _256  and  _257
REMARK  111  A    between atoms: _256  and  _259
REMARK  112  A    between atoms: _259  and  _260
REMARK  113  A    between atoms: _263  and  _265
REMARK  114  A    between atoms: _265  and  _266
REMARK  115  A    between atoms: _269  and  _271
REMARK  116  A    between atoms: _271  and  _272
REMARK  117  A    between atoms: _271  and  _274
REMARK  118  A    between atoms: _274  and  _275
REMARK  119  A    between atoms: _278  and  _280
REMARK  120  A    between atoms: _280  and  _281
REMARK  121  A    between atoms: _284  and  _286
REMARK  122  A    between atoms: _286  and  _287
REMARK  123  A    between atoms: _286  and  _289
REMARK  124  A    between atoms: _292  and  _294
REMARK  125  A    between atoms: _294  and  _295
REMARK  126  A    between atoms: _294  and  _297
REMARK  127  A    between atoms: _297  and  _298
REMARK  128  A    between atoms: _298  and  _299
REMARK  129  A    between atoms: _302  and  _304
REMARK  130  A    between atoms: _304  and  _305
REMARK  131  A    between atoms: _304  and  _307
REMARK  132  A    between atoms: _307  and  _308
REMARK  133  A    between atoms: _308  and  _309
REMARK  134  A    between atoms: _309  and  _310
REMARK  135  A    between atoms: _319  and  _321
REMARK  136  A    between atoms: _321  and  _322
REMARK  137  A    between atoms: _321  and  _324
REMARK  138  A    between atoms: _324  and  _325
REMARK  139  A    between atoms: _331  and  _333
REMARK  140  A    between atoms: _333  and  _334
REMARK  141  A    between atoms: _333  and  _336
REMARK  142  A    between atoms: _336  and  _337
REMARK  143  A    between atoms: _340  and  _342
REMARK  144  A    between atoms: _342  and  _343
REMARK  145  A    between atoms: _342  and  _345
REMARK  146  A    between atoms: _345  and  _346
REMARK  147  A    between atoms: _346  and  _347
REMARK  148  A    between atoms: _347  and  _348
REMARK  149  A    between atoms: _357  and  _359
REMARK  150  A    between atoms: _359  and  _360
REMARK  151  A    between atoms: _359  and  _362
REMARK  152  A    between atoms: _362  and  _363
REMARK  153  A    between atoms: _366  and  _368
REMARK  154  A    between atoms: _368  and  _369
REMARK  155  A    between atoms: _368  and  _371
REMARK  156  A    between atoms: _371  and  _372
REMARK  157  A    between atoms: _372  and  _373
REMARK  158  A    between atoms: _378  and  _380
REMARK  159  A    between atoms: _380  and  _381
REMARK  160  A    between atoms: _380  and  _383
REMARK  161  A    between atoms: _383  and  _384
REMARK  162  A    between atoms: _384  and  _385
REMARK  163  A    between atoms: _388  and  _390
REMARK  164  A    between atoms: _390  and  _391
REMARK  165  A    between atoms: _390  and  _393
REMARK  166  A    between atoms: _393  and  _394
REMARK  167  A    between atoms: _397  and  _399
REMARK  168  A    between atoms: _399  and  _400
REMARK  169  A    between atoms: _399  and  _402
REMARK  170  A    between atoms: _402  and  _403
REMARK  171  A    between atoms: _403  and  _404
REMARK  172  A    between atoms: _406  and  _408
REMARK  173  A    between atoms: _408  and  _409
REMARK  174  A    between atoms: _408  and  _411
REMARK  175  A    between atoms: _413  and  _415
REMARK  176  A    between atoms: _415  and  _416
REMARK  177  A    between atoms: _415  and  _418
REMARK  178  A    between atoms: _418  and  _419
REMARK  179  A    between atoms: _419  and  _420
REMARK  180  A    between atoms: _425  and  _427
REMARK  181  A    between atoms: _427  and  _428
REMARK  182  A    between atoms: _427  and  _430
REMARK  183  A    between atoms: _430  and  _431
REMARK  184  A    between atoms: _431  and  _432
REMARK  185  A    between atoms: _432  and  _433
REMARK  186  A    between atoms: _433  and  _434
REMARK  187  A    between atoms: _438  and  _440
REMARK  188  A    between atoms: _440  and  _441
REMARK  189  A    between atoms: _440  and  _443
REMARK  190  A    between atoms: _443  and  _444
REMARK  191  A    between atoms: _449  and  _450
REMARK  192  A    between atoms: _452  and  _454
REMARK  193  A    between atoms: _454  and  _455
REMARK  194  A    between atoms: _454  and  _457
REMARK  195  A    between atoms: _457  and  _458
REMARK  196  A    between atoms: _458  and  _459
REMARK  197  A    between atoms: _464  and  _466
REMARK  198  A    between atoms: _466  and  _467
REMARK  199  A    between atoms: _469  and  _471
REMARK  200  A    between atoms: _471  and  _472
REMARK  201  A    between atoms: _471  and  _474
REMARK  202  A    between atoms: _474  and  _475
REMARK  203  A    between atoms: _480  and  _482
REMARK  204  A    between atoms: _482  and  _483
REMARK  205  A    between atoms: _486  and  _488
REMARK  206  A    between atoms: _488  and  _489
REMARK  207  A    between atoms: _488  and  _491
REMARK  208  A    between atoms: _491  and  _492
REMARK  209  A    between atoms: _492  and  _493
REMARK  210  A    between atoms: _493  and  _494
REMARK  211  A    between atoms: _494  and  _495
REMARK  212  A    between atoms: _499  and  _501
REMARK  213  A    between atoms: _501  and  _502
REMARK  214  A    between atoms: _501  and  _504
REMARK  215  A    between atoms: _504  and  _505
REMARK  216  A    between atoms: _505  and  _506
REMARK  217  A    between atoms: _505  and  _507
REMARK  218  A    between atoms: _506  and  MG_619
REMARK  219  A    between atoms: _510  and  _512
REMARK  220  A    between atoms: _512  and  _513
REMARK  221  A    between atoms: _512  and  _515
REMARK  222  A    between atoms: _515  and  _516
REMARK  223  A    between atoms: _522  and  _524
REMARK  224  A    between atoms: _524  and  _525
REMARK  225  A    between atoms: _524  and  _527
REMARK  226  A    between atoms: _527  and  _528
REMARK  227  A    between atoms: _530  and  _532
REMARK  228  A    between atoms: _532  and  _533
REMARK  229  A    between atoms: _532  and  _535
REMARK  230  A    between atoms: _538  and  _540
REMARK  231  A    between atoms: _540  and  _541
REMARK  232  A    between atoms: _540  and  _543
REMARK  233  A    between atoms: _543  and  _544
REMARK  234  A    between atoms: _550  and  _552
REMARK  235  A    between atoms: _552  and  _553
REMARK  236  A    between atoms: _552  and  _555
REMARK  237  A    between atoms: _555  and  _556
REMARK  238  A    between atoms: _560  and  _561
REMARK  239  A    between atoms: _566  and  _568
REMARK  240  A    between atoms: _568  and  _569
REMARK  241  A    between atoms: _568  and  _571
REMARK  242  A    between atoms: _571  and  _572
REMARK  243  A    between atoms: _578  and  _580
REMARK  244  A    between atoms: _580  and  _581
REMARK  245  A    between atoms: _580  and  _583
REMARK  246  A    between atoms: _583  and  _584
REMARK  247  A    between atoms: _589  and  _590
REMARK  248  A    between atoms: _592  and  _594
REMARK  249  A    between atoms: _594  and  _595
REMARK  250  A    between atoms: _594  and  _597
REMARK  251  A    between atoms: _597  and  _598
REMARK  252  A    between atoms: _598  and  _599
REMARK  253  A    between atoms: _601  and  _603
REMARK  254  A    between atoms: _603  and  _604
REMARK  255  A    between atoms: _603  and  _606
REMARK  256  A    between atoms: _606  and  _607
REMARK  257  A    between atoms: _610  and  _612
REMARK  258  A    between atoms: _612  and  _613
REMARK  259  A    between atoms: _612  and  _615
REMARK  260  A    between atoms: _615  and  _616
REMARK                            x       y       z     vdW  Elec       q    Type
REMARK                         _______ _______ _______ _____ _____    ______ ____
ROOT
ATOM      1  O   HOH     1       6.062   4.850  55.019  0.00  0.00    +0.000 OA
ENDROOT
TORSDOF 0
REMARK  Name = ../refined-set-2016/3dnt/3dnt_pocket.pdb
REMARK  260 active torsions:
REMARK  status: ('A' for Active; 'I' for Inactive)
REMARK    1  A    between atoms: _1  and  _3
REMARK    2  A    between atoms: _3  and  _4
REMARK    3  A    between atoms: _3  and  _6
REMARK    4  A    between atoms: _6  and  _7
REMARK    5  A    between atoms: _12  and  _14
REMARK    6  A    between atoms: _14  and  _15
REMARK    7  A    between atoms: _14  and  _17
REMARK    8  A    between atoms: _17  and  _18
REMARK    9  A    between atoms: _21  and  _23
REMARK   10  A    between atoms: _23  and  _24
REMARK   11  A    between atoms: _23  and  _26
REMARK   12  A    between atoms: _26  and  _27
REMARK   13  A    between atoms: _31  and  _32
REMARK   14  A    between atoms: _37  and  _39
REMARK   15  A    between atoms: _39  and  _40
REMARK   16  A    between atoms: _39  and  _42
REMARK   17  A    between atoms: _42  and  _43
REMARK   18  A    between atoms: _46  and  _48
REMARK   19  A    between atoms: _48  and  _49
REMARK   20  A    between atoms: _48  and  _51
REMARK   21  A    between atoms: _51  and  _52
REMARK   22  A    between atoms: _54  and  _56
REMARK   23  A    between atoms: _56  and  _57
REMARK   24  A    between atoms: _56  and  _59
REMARK   25  A    between atoms: _59  and  _60
REMARK   26  A    between atoms: _62  and  _64
REMARK   27  A    between atoms: _64  and  _65
REMARK   28  A    between atoms: _64  and  _67
REMARK   29  A    between atoms: _70  and  _72
REMARK   30  A    between atoms: _72  and  _73
REMARK   31  A    between atoms: _75  and  _77
REMARK   32  A    between atoms: _77  and  _78
REMARK   33  A    between atoms: _77  and  _80
REMARK   34  A    between atoms: _80  and  _81
REMARK   35  A    between atoms: _83  and  _85
REMARK   36  A    between atoms: _85  and  _86
REMARK   37  A    between atoms: _85  and  _88
REMARK   38  A    between atoms: _91  and  _93
REMARK   39  A    between atoms: _93  and  _94
REMARK   40  A    between atoms: _97  and  _99
REMARK   41  A    between atoms: _99  and  _100
REMARK   42  A    between atoms: _102  and  _104
REMARK   43  A    between atoms: _104  and  _105
REMARK   44  A    between atoms: _108  and  _110
REMARK   45  A    between atoms: _110  and  _111
REMARK   46  A    between atoms: _110  and  _113
REMARK   47  A    between atoms: _113  and  _114
REMARK   48  A    between atoms: _114  and  _115
REMARK   49  A    between atoms: _120  and  _122
REMARK   50  A    between atoms: _122  and  _123
REMARK   51  A    between atoms: _122  and  _125
REMARK   52  A    between atoms: _125  and  _126
REMARK   53  A    between atoms: _126  and  _127
REMARK   54  A    between atoms: _130  and  _132
REMARK   55  A    between atoms: _132  and  _133
REMARK   56  A    between atoms: _132  and  _135
REMARK   57  A    between atoms: _135  and  _136
REMARK   58  A    between atoms: _136  and  _137
REMARK   59  A    between atoms: _137  and  _138
REMARK   60  A    between atoms: _138  and  _139
REMARK   61  A    between atoms: _143  and  _145
REMARK   62  A    between atoms: _145  and  _146
REMARK   63  A    between atoms: _145  and  _148
REMARK   64  A    between atoms: _148  and  _149
REMARK   65  A    between atoms: _152  and  _154
REMARK   66  A    between atoms: _154  and  _155
REMARK   67  A    between atoms: _154  and  _157
REMARK   68  A    between atoms: _157  and  _158
REMARK   69  A    between atoms: _163  and  _165
REMARK   70  A    between atoms: _165  and  _166
REMARK   71  A    between atoms: _165  and  _168
REMARK   72  A    between atoms: _168  and  _169
REMARK   73  A    between atoms: _172  and  _174
REMARK   74  A    between atoms: _174  and  _175
REMARK   75  A    between atoms: _174  and  _177
REMARK   76  A    between atoms: _177  and  _178
REMARK   77  A    between atoms: _181  and  _183
REMARK   78  A    between atoms: _183  and  _184
REMARK   79  A    between atoms: _183  and  _186
REMARK   80  A    between atoms: _186  and  _187
REMARK   81  A    between atoms: _187  and  _188
REMARK   82  A    between atoms: _188  and  _189
REMARK   83  A    between atoms: _189  and  _190
REMARK   84  A    between atoms: _194  and  _196
REMARK   85  A    between atoms: _196  and  _197
REMARK   86  A    between atoms: _196  and  _199
REMARK   87  A    between atoms: _199  and  _200
REMARK   88  A    between atoms: _203  and  _205
REMARK   89  A    between atoms: _205  and  _206
REMARK   90  A    between atoms: _205  and  _208
REMARK   91  A    between atoms: _208  and  _209
REMARK   92  A    between atoms: _212  and  _214
REMARK   93  A    between atoms: _214  and  _215
REMARK   94  A    between atoms: _214  and  _217
REMARK   95  A    between atoms: _217  and  _218
REMARK   96  A    between atoms: _220  and  _222
REMARK   97  A    between atoms: _222  and  _223
REMARK   98  A    between atoms: _222  and  _225
REMARK   99  A    between atoms: _225  and  _226
REMARK  100  A    between atoms: _226  and  _227
REMARK  101  A    between atoms: _230  and  _232
REMARK  102  A    between atoms: _232  and  _233
REMARK  103  A    between atoms: _232  and  _235
REMARK  104  A    between atoms: _235  and  _236
REMARK  105  A    between atoms: _239  and  _241
REMARK  106  A    between atoms: _241  and  _242
REMARK  107  A    between atoms: _241  and  _244
REMARK  108  A    between atoms: _248  and  _249
REMARK  109  A    between atoms: _254  and  _256
REMARK  110  A    between atoms: _256  and  _257
REMARK  111  A    between atoms: _256  and  _259
REMARK  112  A    between atoms: _259  and  _260
REMARK  113  A    between atoms: _263  and  _265
REMARK  114  A    between atoms: _265  and  _266
REMARK  115  A    between atoms: _269  and  _271
REMARK  116  A    between atoms: _271  and  _272
REMARK  117  A    between atoms: _271  and  _274
REMARK  118  A    between atoms: _274  and  _275
REMARK  119  A    between atoms: _278  and  _280
REMARK  120  A    between atoms: _280  and  _281
REMARK  121  A    between atoms: _284  and  _286
REMARK  122  A    between atoms: _286  and  _287
REMARK  123  A    between atoms: _286  and  _289
REMARK  124  A    between atoms: _292  and  _294
REMARK  125  A    between atoms: _294  and  _295
REMARK  126  A    between atoms: _294  and  _297
REMARK  127  A    between atoms: _297  and  _298
REMARK  128  A    between atoms: _298  and  _299
REMARK  129  A    between atoms: _302  and  _304
REMARK  130  A    between atoms: _304  and  _305
REMARK  131  A    between atoms: _304  and  _307
REMARK  132  A    between atoms: _307  and  _308
REMARK  133  A    between atoms: _308  and  _309
REMARK  134  A    between atoms: _309  and  _310
REMARK  135  A    between atoms: _319  and  _321
REMARK  136  A    between atoms: _321  and  _322
REMARK  137  A    between atoms: _321  and  _324
REMARK  138  A    between atoms: _324  and  _325
REMARK  139  A    between atoms: _331  and  _333
REMARK  140  A    between atoms: _333  and  _334
REMARK  141  A    between atoms: _333  and  _336
REMARK  142  A    between atoms: _336  and  _337
REMARK  143  A    between atoms: _340  and  _342
REMARK  144  A    between atoms: _342  and  _343
REMARK  145  A    between atoms: _342  and  _345
REMARK  146  A    between atoms: _345  and  _346
REMARK  147  A    between atoms: _346  and  _347
REMARK  148  A    between atoms: _347  and  _348
REMARK  149  A    between atoms: _357  and  _359
REMARK  150  A    between atoms: _359  and  _360
REMARK  151  A    between atoms: _359  and  _362
REMARK  152  A    between atoms: _362  and  _363
REMARK  153  A    between atoms: _366  and  _368
REMARK  154  A    between atoms: _368  and  _369
REMARK  155  A    between atoms: _368  and  _371
REMARK  156  A    between atoms: _371  and  _372
REMARK  157  A    between atoms: _372  and  _373
REMARK  158  A    between atoms: _378  and  _380
REMARK  159  A    between atoms: _380  and  _381
REMARK  160  A    between atoms: _380  and  _383
REMARK  161  A    between atoms: _383  and  _384
REMARK  162  A    between atoms: _384  and  _385
REMARK  163  A    between atoms: _388  and  _390
REMARK  164  A    between atoms: _390  and  _391
REMARK  165  A    between atoms: _390  and  _393
REMARK  166  A    between atoms: _393  and  _394
REMARK  167  A    between atoms: _397  and  _399
REMARK  168  A    between atoms: _399  and  _400
REMARK  169  A    between atoms: _399  and  _402
REMARK  170  A    between atoms: _402  and  _403
REMARK  171  A    between atoms: _403  and  _404
REMARK  172  A    between atoms: _406  and  _408
REMARK  173  A    between atoms: _408  and  _409
REMARK  174  A    between atoms: _408  and  _411
REMARK  175  A    between atoms: _413  and  _415
REMARK  176  A    between atoms: _415  and  _416
REMARK  177  A    between atoms: _415  and  _418
REMARK  178  A    between atoms: _418  and  _419
REMARK  179  A    between atoms: _419  and  _420
REMARK  180  A    between atoms: _425  and  _427
REMARK  181  A    between atoms: _427  and  _428
REMARK  182  A    between atoms: _427  and  _430
REMARK  183  A    between atoms: _430  and  _431
REMARK  184  A    between atoms: _431  and  _432
REMARK  185  A    between atoms: _432  and  _433
REMARK  186  A    between atoms: _433  and  _434
REMARK  187  A    between atoms: _438  and  _440
REMARK  188  A    between atoms: _440  and  _441
REMARK  189  A    between atoms: _440  and  _443
REMARK  190  A    between atoms: _443  and  _444
REMARK  191  A    between atoms: _449  and  _450
REMARK  192  A    between atoms: _452  and  _454
REMARK  193  A    between atoms: _454  and  _455
REMARK  194  A    between atoms: _454  and  _457
REMARK  195  A    between atoms: _457  and  _458
REMARK  196  A    between atoms: _458  and  _459
REMARK  197  A    between atoms: _464  and  _466
REMARK  198  A    between atoms: _466  and  _467
REMARK  199  A    between atoms: _469  and  _471
REMARK  200  A    between atoms: _471  and  _472
REMARK  201  A    between atoms: _471  and  _474
REMARK  202  A    between atoms: _474  and  _475
REMARK  203  A    between atoms: _480  and  _482
REMARK  204  A    between atoms: _482  and  _483
REMARK  205  A    between atoms: _486  and  _488
REMARK  206  A    between atoms: _488  and  _489
REMARK  207  A    between atoms: _488  and  _491
REMARK  208  A    between atoms: _491  and  _492
REMARK  209  A    between atoms: _492  and  _493
REMARK  210  A    between atoms: _493  and  _494
REMARK  211  A    between atoms: _494  and  _495
REMARK  212  A    between atoms: _499  and  _501
REMARK  213  A    between atoms: _501  and  _502
REMARK  214  A    between atoms: _501  and  _504
REMARK  215  A    between atoms: _504  and  _505
REMARK  216  A    between atoms: _505  and  _506
REMARK  217  A    between atoms: _505  and  _507
REMARK  218  A    between atoms: _506  and  MG_619
REMARK  219  A    between atoms: _510  and  _512
REMARK  220  A    between atoms: _512  and  _513
REMARK  221  A    between atoms: _512  and  _515
REMARK  222  A    between atoms: _515  and  _516
REMARK  223  A    between atoms: _522  and  _524
REMARK  224  A    between atoms: _524  and  _525
REMARK  225  A    between atoms: _524  and  _527
REMARK  226  A    between atoms: _527  and  _528
REMARK  227  A    between atoms: _530  and  _532
REMARK  228  A    between atoms: _532  and  _533
REMARK  229  A    between atoms: _532  and  _535
REMARK  230  A    between atoms: _538  and  _540
REMARK  231  A    between atoms: _540  and  _541
REMARK  232  A    between atoms: _540  and  _543
REMARK  233  A    between atoms: _543  and  _544
REMARK  234  A    between atoms: _550  and  _552
REMARK  235  A    between atoms: _552  and  _553
REMARK  236  A    between atoms: _552  and  _555
REMARK  237  A    between atoms: _555  and  _556
REMARK  238  A    between atoms: _560  and  _561
REMARK  239  A    between atoms: _566  and  _568
REMARK  240  A    between atoms: _568  and  _569
REMARK  241  A    between atoms: _568  and  _571
REMARK  242  A    between atoms: _571  and  _572
REMARK  243  A    between atoms: _578  and  _580
REMARK  244  A    between atoms: _580  and  _581
REMARK  245  A    between atoms: _580  and  _583
REMARK  246  A    between atoms: _583  and  _584
REMARK  247  A    between atoms: _589  and  _590
REMARK  248  A    between atoms: _592  and  _594
REMARK  249  A    between atoms: _594  and  _595
REMARK  250  A    between atoms: _594  and  _597
REMARK  251  A    between atoms: _597  and  _598
REMARK  252  A    between atoms: _598  and  _599
REMARK  253  A    between atoms: _601  and  _603
REMARK  254  A    between atoms: _603  and  _604
REMARK  255  A    between atoms: _603  and  _606
REMARK  256  A    between atoms: _606  and  _607
REMARK  257  A    between atoms: _610  and  _612
REMARK  258  A    between atoms: _612  and  _613
REMARK  259  A    between atoms: _612  and  _615
REMARK  260  A    between atoms: _615  and  _616
REMARK                            x       y       z     vdW  Elec       q    Type
REMARK                         _______ _______ _______ _____ _____    ______ ____
ROOT
ATOM      1  O   HOH     1       0.047   2.859  50.182  0.00  0.00    +0.000 OA
ENDROOT
TORSDOF 0
REMARK  Name = ../refined-set-2016/3dnt/3dnt_pocket.pdb
REMARK  260 active torsions:
REMARK  status: ('A' for Active; 'I' for Inactive)
REMARK    1  A    between atoms: _1  and  _3
REMARK    2  A    between atoms: _3  and  _4
REMARK    3  A    between atoms: _3  and  _6
REMARK    4  A    between atoms: _6  and  _7
REMARK    5  A    between atoms: _12  and  _14
REMARK    6  A    between atoms: _14  and  _15
REMARK    7  A    between atoms: _14  and  _17
REMARK    8  A    between atoms: _17  and  _18
REMARK    9  A    between atoms: _21  and  _23
REMARK   10  A    between atoms: _23  and  _24
REMARK   11  A    between atoms: _23  and  _26
REMARK   12  A    between atoms: _26  and  _27
REMARK   13  A    between atoms: _31  and  _32
REMARK   14  A    between atoms: _37  and  _39
REMARK   15  A    between atoms: _39  and  _40
REMARK   16  A    between atoms: _39  and  _42
REMARK   17  A    between atoms: _42  and  _43
REMARK   18  A    between atoms: _46  and  _48
REMARK   19  A    between atoms: _48  and  _49
REMARK   20  A    between atoms: _48  and  _51
REMARK   21  A    between atoms: _51  and  _52
REMARK   22  A    between atoms: _54  and  _56
REMARK   23  A    between atoms: _56  and  _57
REMARK   24  A    between atoms: _56  and  _59
REMARK   25  A    between atoms: _59  and  _60
REMARK   26  A    between atoms: _62  and  _64
REMARK   27  A    between atoms: _64  and  _65
REMARK   28  A    between atoms: _64  and  _67
REMARK   29  A    between atoms: _70  and  _72
REMARK   30  A    between atoms: _72  and  _73
REMARK   31  A    between atoms: _75  and  _77
REMARK   32  A    between atoms: _77  and  _78
REMARK   33  A    between atoms: _77  and  _80
REMARK   34  A    between atoms: _80  and  _81
REMARK   35  A    between atoms: _83  and  _85
REMARK   36  A    between atoms: _85  and  _86
REMARK   37  A    between atoms: _85  and  _88
REMARK   38  A    between atoms: _91  and  _93
REMARK   39  A    between atoms: _93  and  _94
REMARK   40  A    between atoms: _97  and  _99
REMARK   41  A    between atoms: _99  and  _100
REMARK   42  A    between atoms: _102  and  _104
REMARK   43  A    between atoms: _104  and  _105
REMARK   44  A    between atoms: _108  and  _110
REMARK   45  A    between atoms: _110  and  _111
REMARK   46  A    between atoms: _110  and  _113
REMARK   47  A    between atoms: _113  and  _114
REMARK   48  A    between atoms: _114  and  _115
REMARK   49  A    between atoms: _120  and  _122
REMARK   50  A    between atoms: _122  and  _123
REMARK   51  A    between atoms: _122  and  _125
REMARK   52  A    between atoms: _125  and  _126
REMARK   53  A    between atoms: _126  and  _127
REMARK   54  A    between atoms: _130  and  _132
REMARK   55  A    between atoms: _132  and  _133
REMARK   56  A    between atoms: _132  and  _135
REMARK   57  A    between atoms: _135  and  _136
REMARK   58  A    between atoms: _136  and  _137
REMARK   59  A    between atoms: _137  and  _138
REMARK   60  A    between atoms: _138  and  _139
REMARK   61  A    between atoms: _143  and  _145
REMARK   62  A    between atoms: _145  and  _146
REMARK   63  A    between atoms: _145  and  _148
REMARK   64  A    between atoms: _148  and  _149
REMARK   65  A    between atoms: _152  and  _154
REMARK   66  A    between atoms: _154  and  _155
REMARK   67  A    between atoms: _154  and  _157
REMARK   68  A    between atoms: _157  and  _158
REMARK   69  A    between atoms: _163  and  _165
REMARK   70  A    between atoms: _165  and  _166
REMARK   71  A    between atoms: _165  and  _168
REMARK   72  A    between atoms: _168  and  _169
REMARK   73  A    between atoms: _172  and  _174
REMARK   74  A    between atoms: _174  and  _175
REMARK   75  A    between atoms: _174  and  _177
REMARK   76  A    between atoms: _177  and  _178
REMARK   77  A    between atoms: _181  and  _183
REMARK   78  A    between atoms: _183  and  _184
REMARK   79  A    between atoms: _183  and  _186
REMARK   80  A    between atoms: _186  and  _187
REMARK   81  A    between atoms: _187  and  _188
REMARK   82  A    between atoms: _188  and  _189
REMARK   83  A    between atoms: _189  and  _190
REMARK   84  A    between atoms: _194  and  _196
REMARK   85  A    between atoms: _196  and  _197
REMARK   86  A    between atoms: _196  and  _199
REMARK   87  A    between atoms: _199  and  _200
REMARK   88  A    between atoms: _203  and  _205
REMARK   89  A    between atoms: _205  and  _206
REMARK   90  A    between atoms: _205  and  _208
REMARK   91  A    between atoms: _208  and  _209
REMARK   92  A    between atoms: _212  and  _214
REMARK   93  A    between atoms: _214  and  _215
REMARK   94  A    between atoms: _214  and  _217
REMARK   95  A    between atoms: _217  and  _218
REMARK   96  A    between atoms: _220  and  _222
REMARK   97  A    between atoms: _222  and  _223
REMARK   98  A    between atoms: _222  and  _225
REMARK   99  A    between atoms: _225  and  _226
REMARK  100  A    between atoms: _226  and  _227
REMARK  101  A    between atoms: _230  and  _232
REMARK  102  A    between atoms: _232  and  _233
REMARK  103  A    between atoms: _232  and  _235
REMARK  104  A    between atoms: _235  and  _236
REMARK  105  A    between atoms: _239  and  _241
REMARK  106  A    between atoms: _241  and  _242
REMARK  107  A    between atoms: _241  and  _244
REMARK  108  A    between atoms: _248  and  _249
REMARK  109  A    between atoms: _254  and  _256
REMARK  110  A    between atoms: _256  and  _257
REMARK  111  A    between atoms: _256  and  _259
REMARK  112  A    between atoms: _259  and  _260
REMARK  113  A    between atoms: _263  and  _265
REMARK  114  A    between atoms: _265  and  _266
REMARK  115  A    between atoms: _269  and  _271
REMARK  116  A    between atoms: _271  and  _272
REMARK  117  A    between atoms: _271  and  _274
REMARK  118  A    between atoms: _274  and  _275
REMARK  119  A    between atoms: _278  and  _280
REMARK  120  A    between atoms: _280  and  _281
REMARK  121  A    between atoms: _284  and  _286
REMARK  122  A    between atoms: _286  and  _287
REMARK  123  A    between atoms: _286  and  _289
REMARK  124  A    between atoms: _292  and  _294
REMARK  125  A    between atoms: _294  and  _295
REMARK  126  A    between atoms: _294  and  _297
REMARK  127  A    between atoms: _297  and  _298
REMARK  128  A    between atoms: _298  and  _299
REMARK  129  A    between atoms: _302  and  _304
REMARK  130  A    between atoms: _304  and  _305
REMARK  131  A    between atoms: _304  and  _307
REMARK  132  A    between atoms: _307  and  _308
REMARK  133  A    between atoms: _308  and  _309
REMARK  134  A    between atoms: _309  and  _310
REMARK  135  A    between atoms: _319  and  _321
REMARK  136  A    between atoms: _321  and  _322
REMARK  137  A    between atoms: _321  and  _324
REMARK  138  A    between atoms: _324  and  _325
REMARK  139  A    between atoms: _331  and  _333
REMARK  140  A    between atoms: _333  and  _334
REMARK  141  A    between atoms: _333  and  _336
REMARK  142  A    between atoms: _336  and  _337
REMARK  143  A    between atoms: _340  and  _342
REMARK  144  A    between atoms: _342  and  _343
REMARK  145  A    between atoms: _342  and  _345
REMARK  146  A    between atoms: _345  and  _346
REMARK  147  A    between atoms: _346  and  _347
REMARK  148  A    between atoms: _347  and  _348
REMARK  149  A    between atoms: _357  and  _359
REMARK  150  A    between atoms: _359  and  _360
REMARK  151  A    between atoms: _359  and  _362
REMARK  152  A    between atoms: _362  and  _363
REMARK  153  A    between atoms: _366  and  _368
REMARK  154  A    between atoms: _368  and  _369
REMARK  155  A    between atoms: _368  and  _371
REMARK  156  A    between atoms: _371  and  _372
REMARK  157  A    between atoms: _372  and  _373
REMARK  158  A    between atoms: _378  and  _380
REMARK  159  A    between atoms: _380  and  _381
REMARK  160  A    between atoms: _380  and  _383
REMARK  161  A    between atoms: _383  and  _384
REMARK  162  A    between atoms: _384  and  _385
REMARK  163  A    between atoms: _388  and  _390
REMARK  164  A    between atoms: _390  and  _391
REMARK  165  A    between atoms: _390  and  _393
REMARK  166  A    between atoms: _393  and  _394
REMARK  167  A    between atoms: _397  and  _399
REMARK  168  A    between atoms: _399  and  _400
REMARK  169  A    between atoms: _399  and  _402
REMARK  170  A    between atoms: _402  and  _403
REMARK  171  A    between atoms: _403  and  _404
REMARK  172  A    between atoms: _406  and  _408
REMARK  173  A    between atoms: _408  and  _409
REMARK  174  A    between atoms: _408  and  _411
REMARK  175  A    between atoms: _413  and  _415
REMARK  176  A    between atoms: _415  and  _416
REMARK  177  A    between atoms: _415  and  _418
REMARK  178  A    between atoms: _418  and  _419
REMARK  179  A    between atoms: _419  and  _420
REMARK  180  A    between atoms: _425  and  _427
REMARK  181  A    between atoms: _427  and  _428
REMARK  182  A    between atoms: _427  and  _430
REMARK  183  A    between atoms: _430  and  _431
REMARK  184  A    between atoms: _431  and  _432
REMARK  185  A    between atoms: _432  and  _433
REMARK  186  A    between atoms: _433  and  _434
REMARK  187  A    between atoms: _438  and  _440
REMARK  188  A    between atoms: _440  and  _441
REMARK  189  A    between atoms: _440  and  _443
REMARK  190  A    between atoms: _443  and  _444
REMARK  191  A    between atoms: _449  and  _450
REMARK  192  A    between atoms: _452  and  _454
REMARK  193  A    between atoms: _454  and  _455
REMARK  194  A    between atoms: _454  and  _457
REMARK  195  A    between atoms: _457  and  _458
REMARK  196  A    between atoms: _458  and  _459
REMARK  197  A    between atoms: _464  and  _466
REMARK  198  A    between atoms: _466  and  _467
REMARK  199  A    between atoms: _469  and  _471
REMARK  200  A    between atoms: _471  and  _472
REMARK  201  A    between atoms: _471  and  _474
REMARK  202  A    between atoms: _474  and  _475
REMARK  203  A    between atoms: _480  and  _482
REMARK  204  A    between atoms: _482  and  _483
REMARK  205  A    between atoms: _486  and  _488
REMARK  206  A    between atoms: _488  and  _489
REMARK  207  A    between atoms: _488  and  _491
REMARK  208  A    between atoms: _491  and  _492
REMARK  209  A    between atoms: _492  and  _493
REMARK  210  A    between atoms: _493  and  _494
REMARK  211  A    between atoms: _494  and  _495
REMARK  212  A    between atoms: _499  and  _501
REMARK  213  A    between atoms: _501  and  _502
REMARK  214  A    between atoms: _501  and  _504
REMARK  215  A    between atoms: _504  and  _505
REMARK  216  A    between atoms: _505  and  _506
REMARK  217  A    between atoms: _505  and  _507
REMARK  218  A    between atoms: _506  and  MG_619
REMARK  219  A    between atoms: _510  and  _512
REMARK  220  A    between atoms: _512  and  _513
REMARK  221  A    between atoms: _512  and  _515
REMARK  222  A    between atoms: _515  and  _516
REMARK  223  A    between atoms: _522  and  _524
REMARK  224  A    between atoms: _524  and  _525
REMARK  225  A    between atoms: _524  and  _527
REMARK  226  A    between atoms: _527  and  _528
REMARK  227  A    between atoms: _530  and  _532
REMARK  228  A    between atoms: _532  and  _533
REMARK  229  A    between atoms: _532  and  _535
REMARK  230  A    between atoms: _538  and  _540
REMARK  231  A    between atoms: _540  and  _541
REMARK  232  A    between atoms: _540  and  _543
REMARK  233  A    between atoms: _543  and  _544
REMARK  234  A    between atoms: _550  and  _552
REMARK  235  A    between atoms: _552  and  _553
REMARK  236  A    between atoms: _552  and  _555
REMARK  237  A    between atoms: _555  and  _556
REMARK  238  A    between atoms: _560  and  _561
REMARK  239  A    between atoms: _566  and  _568
REMARK  240  A    between atoms: _568  and  _569
REMARK  241  A    between atoms: _568  and  _571
REMARK  242  A    between atoms: _571  and  _572
REMARK  243  A    between atoms: _578  and  _580
REMARK  244  A    between atoms: _580  and  _581
REMARK  245  A    between atoms: _580  and  _583
REMARK  246  A    between atoms: _583  and  _584
REMARK  247  A    between atoms: _589  and  _590
REMARK  248  A    between atoms: _592  and  _594
REMARK  249  A    between atoms: _594  and  _595
REMARK  250  A    between atoms: _594  and  _597
REMARK  251  A    between atoms: _597  and  _598
REMARK  252  A    between atoms: _598  and  _599
REMARK  253  A    between atoms: _601  and  _603
REMARK  254  A    between atoms: _603  and  _604
REMARK  255  A    between atoms: _603  and  _606
REMARK  256  A    between atoms: _606  and  _607
REMARK  257  A    between atoms: _610  and  _612
REMARK  258  A    between atoms: _612  and  _613
REMARK  259  A    between atoms: _612  and  _615
REMARK  260  A    between atoms: _615  and  _616
REMARK                            x       y       z     vdW  Elec       q    Type
REMARK                         _______ _______ _______ _____ _____    ______ ____
ROOT
ATOM      1  O   HOH     1     -10.976   7.991  55.458  0.00  0.00    +0.000 OA
ENDROOT
TORSDOF 0
REMARK  Name = ../refined-set-2016/3dnt/3dnt_pocket.pdb
REMARK  260 active torsions:
REMARK  status: ('A' for Active; 'I' for Inactive)
REMARK    1  A    between atoms: _1  and  _3
REMARK    2  A    between atoms: _3  and  _4
REMARK    3  A    between atoms: _3  and  _6
REMARK    4  A    between atoms: _6  and  _7
REMARK    5  A    between atoms: _12  and  _14
REMARK    6  A    between atoms: _14  and  _15
REMARK    7  A    between atoms: _14  and  _17
REMARK    8  A    between atoms: _17  and  _18
REMARK    9  A    between atoms: _21  and  _23
REMARK   10  A    between atoms: _23  and  _24
REMARK   11  A    between atoms: _23  and  _26
REMARK   12  A    between atoms: _26  and  _27
REMARK   13  A    between atoms: _31  and  _32
REMARK   14  A    between atoms: _37  and  _39
REMARK   15  A    between atoms: _39  and  _40
REMARK   16  A    between atoms: _39  and  _42
REMARK   17  A    between atoms: _42  and  _43
REMARK   18  A    between atoms: _46  and  _48
REMARK   19  A    between atoms: _48  and  _49
REMARK   20  A    between atoms: _48  and  _51
REMARK   21  A    between atoms: _51  and  _52
REMARK   22  A    between atoms: _54  and  _56
REMARK   23  A    between atoms: _56  and  _57
REMARK   24  A    between atoms: _56  and  _59
REMARK   25  A    between atoms: _59  and  _60
REMARK   26  A    between atoms: _62  and  _64
REMARK   27  A    between atoms: _64  and  _65
REMARK   28  A    between atoms: _64  and  _67
REMARK   29  A    between atoms: _70  and  _72
REMARK   30  A    between atoms: _72  and  _73
REMARK   31  A    between atoms: _75  and  _77
REMARK   32  A    between atoms: _77  and  _78
REMARK   33  A    between atoms: _77  and  _80
REMARK   34  A    between atoms: _80  and  _81
REMARK   35  A    between atoms: _83  and  _85
REMARK   36  A    between atoms: _85  and  _86
REMARK   37  A    between atoms: _85  and  _88
REMARK   38  A    between atoms: _91  and  _93
REMARK   39  A    between atoms: _93  and  _94
REMARK   40  A    between atoms: _97  and  _99
REMARK   41  A    between atoms: _99  and  _100
REMARK   42  A    between atoms: _102  and  _104
REMARK   43  A    between atoms: _104  and  _105
REMARK   44  A    between atoms: _108  and  _110
REMARK   45  A    between atoms: _110  and  _111
REMARK   46  A    between atoms: _110  and  _113
REMARK   47  A    between atoms: _113  and  _114
REMARK   48  A    between atoms: _114  and  _115
REMARK   49  A    between atoms: _120  and  _122
REMARK   50  A    between atoms: _122  and  _123
REMARK   51  A    between atoms: _122  and  _125
REMARK   52  A    between atoms: _125  and  _126
REMARK   53  A    between atoms: _126  and  _127
REMARK   54  A    between atoms: _130  and  _132
REMARK   55  A    between atoms: _132  and  _133
REMARK   56  A    between atoms: _132  and  _135
REMARK   57  A    between atoms: _135  and  _136
REMARK   58  A    between atoms: _136  and  _137
REMARK   59  A    between atoms: _137  and  _138
REMARK   60  A    between atoms: _138  and  _139
REMARK   61  A    between atoms: _143  and  _145
REMARK   62  A    between atoms: _145  and  _146
REMARK   63  A    between atoms: _145  and  _148
REMARK   64  A    between atoms: _148  and  _149
REMARK   65  A    between atoms: _152  and  _154
REMARK   66  A    between atoms: _154  and  _155
REMARK   67  A    between atoms: _154  and  _157
REMARK   68  A    between atoms: _157  and  _158
REMARK   69  A    between atoms: _163  and  _165
REMARK   70  A    between atoms: _165  and  _166
REMARK   71  A    between atoms: _165  and  _168
REMARK   72  A    between atoms: _168  and  _169
REMARK   73  A    between atoms: _172  and  _174
REMARK   74  A    between atoms: _174  and  _175
REMARK   75  A    between atoms: _174  and  _177
REMARK   76  A    between atoms: _177  and  _178
REMARK   77  A    between atoms: _181  and  _183
REMARK   78  A    between atoms: _183  and  _184
REMARK   79  A    between atoms: _183  and  _186
REMARK   80  A    between atoms: _186  and  _187
REMARK   81  A    between atoms: _187  and  _188
REMARK   82  A    between atoms: _188  and  _189
REMARK   83  A    between atoms: _189  and  _190
REMARK   84  A    between atoms: _194  and  _196
REMARK   85  A    between atoms: _196  and  _197
REMARK   86  A    between atoms: _196  and  _199
REMARK   87  A    between atoms: _199  and  _200
REMARK   88  A    between atoms: _203  and  _205
REMARK   89  A    between atoms: _205  and  _206
REMARK   90  A    between atoms: _205  and  _208
REMARK   91  A    between atoms: _208  and  _209
REMARK   92  A    between atoms: _212  and  _214
REMARK   93  A    between atoms: _214  and  _215
REMARK   94  A    between atoms: _214  and  _217
REMARK   95  A    between atoms: _217  and  _218
REMARK   96  A    between atoms: _220  and  _222
REMARK   97  A    between atoms: _222  and  _223
REMARK   98  A    between atoms: _222  and  _225
REMARK   99  A    between atoms: _225  and  _226
REMARK  100  A    between atoms: _226  and  _227
REMARK  101  A    between atoms: _230  and  _232
REMARK  102  A    between atoms: _232  and  _233
REMARK  103  A    between atoms: _232  and  _235
REMARK  104  A    between atoms: _235  and  _236
REMARK  105  A    between atoms: _239  and  _241
REMARK  106  A    between atoms: _241  and  _242
REMARK  107  A    between atoms: _241  and  _244
REMARK  108  A    between atoms: _248  and  _249
REMARK  109  A    between atoms: _254  and  _256
REMARK  110  A    between atoms: _256  and  _257
REMARK  111  A    between atoms: _256  and  _259
REMARK  112  A    between atoms: _259  and  _260
REMARK  113  A    between atoms: _263  and  _265
REMARK  114  A    between atoms: _265  and  _266
REMARK  115  A    between atoms: _269  and  _271
REMARK  116  A    between atoms: _271  and  _272
REMARK  117  A    between atoms: _271  and  _274
REMARK  118  A    between atoms: _274  and  _275
REMARK  119  A    between atoms: _278  and  _280
REMARK  120  A    between atoms: _280  and  _281
REMARK  121  A    between atoms: _284  and  _286
REMARK  122  A    between atoms: _286  and  _287
REMARK  123  A    between atoms: _286  and  _289
REMARK  124  A    between atoms: _292  and  _294
REMARK  125  A    between atoms: _294  and  _295
REMARK  126  A    between atoms: _294  and  _297
REMARK  127  A    between atoms: _297  and  _298
REMARK  128  A    between atoms: _298  and  _299
REMARK  129  A    between atoms: _302  and  _304
REMARK  130  A    between atoms: _304  and  _305
REMARK  131  A    between atoms: _304  and  _307
REMARK  132  A    between atoms: _307  and  _308
REMARK  133  A    between atoms: _308  and  _309
REMARK  134  A    between atoms: _309  and  _310
REMARK  135  A    between atoms: _319  and  _321
REMARK  136  A    between atoms: _321  and  _322
REMARK  137  A    between atoms: _321  and  _324
REMARK  138  A    between atoms: _324  and  _325
REMARK  139  A    between atoms: _331  and  _333
REMARK  140  A    between atoms: _333  and  _334
REMARK  141  A    between atoms: _333  and  _336
REMARK  142  A    between atoms: _336  and  _337
REMARK  143  A    between atoms: _340  and  _342
REMARK  144  A    between atoms: _342  and  _343
REMARK  145  A    between atoms: _342  and  _345
REMARK  146  A    between atoms: _345  and  _346
REMARK  147  A    between atoms: _346  and  _347
REMARK  148  A    between atoms: _347  and  _348
REMARK  149  A    between atoms: _357  and  _359
REMARK  150  A    between atoms: _359  and  _360
REMARK  151  A    between atoms: _359  and  _362
REMARK  152  A    between atoms: _362  and  _363
REMARK  153  A    between atoms: _366  and  _368
REMARK  154  A    between atoms: _368  and  _369
REMARK  155  A    between atoms: _368  and  _371
REMARK  156  A    between atoms: _371  and  _372
REMARK  157  A    between atoms: _372  and  _373
REMARK  158  A    between atoms: _378  and  _380
REMARK  159  A    between atoms: _380  and  _381
REMARK  160  A    between atoms: _380  and  _383
REMARK  161  A    between atoms: _383  and  _384
REMARK  162  A    between atoms: _384  and  _385
REMARK  163  A    between atoms: _388  and  _390
REMARK  164  A    between atoms: _390  and  _391
REMARK  165  A    between atoms: _390  and  _393
REMARK  166  A    between atoms: _393  and  _394
REMARK  167  A    between atoms: _397  and  _399
REMARK  168  A    between atoms: _399  and  _400
REMARK  169  A    between atoms: _399  and  _402
REMARK  170  A    between atoms: _402  and  _403
REMARK  171  A    between atoms: _403  and  _404
REMARK  172  A    between atoms: _406  and  _408
REMARK  173  A    between atoms: _408  and  _409
REMARK  174  A    between atoms: _408  and  _411
REMARK  175  A    between atoms: _413  and  _415
REMARK  176  A    between atoms: _415  and  _416
REMARK  177  A    between atoms: _415  and  _418
REMARK  178  A    between atoms: _418  and  _419
REMARK  179  A    between atoms: _419  and  _420
REMARK  180  A    between atoms: _425  and  _427
REMARK  181  A    between atoms: _427  and  _428
REMARK  182  A    between atoms: _427  and  _430
REMARK  183  A    between atoms: _430  and  _431
REMARK  184  A    between atoms: _431  and  _432
REMARK  185  A    between atoms: _432  and  _433
REMARK  186  A    between atoms: _433  and  _434
REMARK  187  A    between atoms: _438  and  _440
REMARK  188  A    between atoms: _440  and  _441
REMARK  189  A    between atoms: _440  and  _443
REMARK  190  A    between atoms: _443  and  _444
REMARK  191  A    between atoms: _449  and  _450
REMARK  192  A    between atoms: _452  and  _454
REMARK  193  A    between atoms: _454  and  _455
REMARK  194  A    between atoms: _454  and  _457
REMARK  195  A    between atoms: _457  and  _458
REMARK  196  A    between atoms: _458  and  _459
REMARK  197  A    between atoms: _464  and  _466
REMARK  198  A    between atoms: _466  and  _467
REMARK  199  A    between atoms: _469  and  _471
REMARK  200  A    between atoms: _471  and  _472
REMARK  201  A    between atoms: _471  and  _474
REMARK  202  A    between atoms: _474  and  _475
REMARK  203  A    between atoms: _480  and  _482
REMARK  204  A    between atoms: _482  and  _483
REMARK  205  A    between atoms: _486  and  _488
REMARK  206  A    between atoms: _488  and  _489
REMARK  207  A    between atoms: _488  and  _491
REMARK  208  A    between atoms: _491  and  _492
REMARK  209  A    between atoms: _492  and  _493
REMARK  210  A    between atoms: _493  and  _494
REMARK  211  A    between atoms: _494  and  _495
REMARK  212  A    between atoms: _499  and  _501
REMARK  213  A    between atoms: _501  and  _502
REMARK  214  A    between atoms: _501  and  _504
REMARK  215  A    between atoms: _504  and  _505
REMARK  216  A    between atoms: _505  and  _506
REMARK  217  A    between atoms: _505  and  _507
REMARK  218  A    between atoms: _506  and  MG_619
REMARK  219  A    between atoms: _510  and  _512
REMARK  220  A    between atoms: _512  and  _513
REMARK  221  A    between atoms: _512  and  _515
REMARK  222  A    between atoms: _515  and  _516
REMARK  223  A    between atoms: _522  and  _524
REMARK  224  A    between atoms: _524  and  _525
REMARK  225  A    between atoms: _524  and  _527
REMARK  226  A    between atoms: _527  and  _528
REMARK  227  A    between atoms: _530  and  _532
REMARK  228  A    between atoms: _532  and  _533
REMARK  229  A    between atoms: _532  and  _535
REMARK  230  A    between atoms: _538  and  _540
REMARK  231  A    between atoms: _540  and  _541
REMARK  232  A    between atoms: _540  and  _543
REMARK  233  A    between atoms: _543  and  _544
REMARK  234  A    between atoms: _550  and  _552
REMARK  235  A    between atoms: _552  and  _553
REMARK  236  A    between atoms: _552  and  _555
REMARK  237  A    between atoms: _555  and  _556
REMARK  238  A    between atoms: _560  and  _561
REMARK  239  A    between atoms: _566  and  _568
REMARK  240  A    between atoms: _568  and  _569
REMARK  241  A    between atoms: _568  and  _571
REMARK  242  A    between atoms: _571  and  _572
REMARK  243  A    between atoms: _578  and  _580
REMARK  244  A    between atoms: _580  and  _581
REMARK  245  A    between atoms: _580  and  _583
REMARK  246  A    between atoms: _583  and  _584
REMARK  247  A    between atoms: _589  and  _590
REMARK  248  A    between atoms: _592  and  _594
REMARK  249  A    between atoms: _594  and  _595
REMARK  250  A    between atoms: _594  and  _597
REMARK  251  A    between atoms: _597  and  _598
REMARK  252  A    between atoms: _598  and  _599
REMARK  253  A    between atoms: _601  and  _603
REMARK  254  A    between atoms: _603  and  _604
REMARK  255  A    between atoms: _603  and  _606
REMARK  256  A    between atoms: _606  and  _607
REMARK  257  A    between atoms: _610  and  _612
REMARK  258  A    between atoms: _612  and  _613
REMARK  259  A    between atoms: _612  and  _615
REMARK  260  A    between atoms: _615  and  _616
REMARK                            x       y       z     vdW  Elec       q    Type
REMARK                         _______ _______ _______ _____ _____    ______ ____
ROOT
ATOM      1  O   HOH     1       2.983  10.819  48.647  0.00  0.00    +0.000 OA
ENDROOT
TORSDOF 0
REMARK  Name = ../refined-set-2016/3dnt/3dnt_pocket.pdb
REMARK  260 active torsions:
REMARK  status: ('A' for Active; 'I' for Inactive)
REMARK    1  A    between atoms: _1  and  _3
REMARK    2  A    between atoms: _3  and  _4
REMARK    3  A    between atoms: _3  and  _6
REMARK    4  A    between atoms: _6  and  _7
REMARK    5  A    between atoms: _12  and  _14
REMARK    6  A    between atoms: _14  and  _15
REMARK    7  A    between atoms: _14  and  _17
REMARK    8  A    between atoms: _17  and  _18
REMARK    9  A    between atoms: _21  and  _23
REMARK   10  A    between atoms: _23  and  _24
REMARK   11  A    between atoms: _23  and  _26
REMARK   12  A    between atoms: _26  and  _27
REMARK   13  A    between atoms: _31  and  _32
REMARK   14  A    between atoms: _37  and  _39
REMARK   15  A    between atoms: _39  and  _40
REMARK   16  A    between atoms: _39  and  _42
REMARK   17  A    between atoms: _42  and  _43
REMARK   18  A    between atoms: _46  and  _48
REMARK   19  A    between atoms: _48  and  _49
REMARK   20  A    between atoms: _48  and  _51
REMARK   21  A    between atoms: _51  and  _52
REMARK   22  A    between atoms: _54  and  _56
REMARK   23  A    between atoms: _56  and  _57
REMARK   24  A    between atoms: _56  and  _59
REMARK   25  A    between atoms: _59  and  _60
REMARK   26  A    between atoms: _62  and  _64
REMARK   27  A    between atoms: _64  and  _65
REMARK   28  A    between atoms: _64  and  _67
REMARK   29  A    between atoms: _70  and  _72
REMARK   30  A    between atoms: _72  and  _73
REMARK   31  A    between atoms: _75  and  _77
REMARK   32  A    between atoms: _77  and  _78
REMARK   33  A    between atoms: _77  and  _80
REMARK   34  A    between atoms: _80  and  _81
REMARK   35  A    between atoms: _83  and  _85
REMARK   36  A    between atoms: _85  and  _86
REMARK   37  A    between atoms: _85  and  _88
REMARK   38  A    between atoms: _91  and  _93
REMARK   39  A    between atoms: _93  and  _94
REMARK   40  A    between atoms: _97  and  _99
REMARK   41  A    between atoms: _99  and  _100
REMARK   42  A    between atoms: _102  and  _104
REMARK   43  A    between atoms: _104  and  _105
REMARK   44  A    between atoms: _108  and  _110
REMARK   45  A    between atoms: _110  and  _111
REMARK   46  A    between atoms: _110  and  _113
REMARK   47  A    between atoms: _113  and  _114
REMARK   48  A    between atoms: _114  and  _115
REMARK   49  A    between atoms: _120  and  _122
REMARK   50  A    between atoms: _122  and  _123
REMARK   51  A    between atoms: _122  and  _125
REMARK   52  A    between atoms: _125  and  _126
REMARK   53  A    between atoms: _126  and  _127
REMARK   54  A    between atoms: _130  and  _132
REMARK   55  A    between atoms: _132  and  _133
REMARK   56  A    between atoms: _132  and  _135
REMARK   57  A    between atoms: _135  and  _136
REMARK   58  A    between atoms: _136  and  _137
REMARK   59  A    between atoms: _137  and  _138
REMARK   60  A    between atoms: _138  and  _139
REMARK   61  A    between atoms: _143  and  _145
REMARK   62  A    between atoms: _145  and  _146
REMARK   63  A    between atoms: _145  and  _148
REMARK   64  A    between atoms: _148  and  _149
REMARK   65  A    between atoms: _152  and  _154
REMARK   66  A    between atoms: _154  and  _155
REMARK   67  A    between atoms: _154  and  _157
REMARK   68  A    between atoms: _157  and  _158
REMARK   69  A    between atoms: _163  and  _165
REMARK   70  A    between atoms: _165  and  _166
REMARK   71  A    between atoms: _165  and  _168
REMARK   72  A    between atoms: _168  and  _169
REMARK   73  A    between atoms: _172  and  _174
REMARK   74  A    between atoms: _174  and  _175
REMARK   75  A    between atoms: _174  and  _177
REMARK   76  A    between atoms: _177  and  _178
REMARK   77  A    between atoms: _181  and  _183
REMARK   78  A    between atoms: _183  and  _184
REMARK   79  A    between atoms: _183  and  _186
REMARK   80  A    between atoms: _186  and  _187
REMARK   81  A    between atoms: _187  and  _188
REMARK   82  A    between atoms: _188  and  _189
REMARK   83  A    between atoms: _189  and  _190
REMARK   84  A    between atoms: _194  and  _196
REMARK   85  A    between atoms: _196  and  _197
REMARK   86  A    between atoms: _196  and  _199
REMARK   87  A    between atoms: _199  and  _200
REMARK   88  A    between atoms: _203  and  _205
REMARK   89  A    between atoms: _205  and  _206
REMARK   90  A    between atoms: _205  and  _208
REMARK   91  A    between atoms: _208  and  _209
REMARK   92  A    between atoms: _212  and  _214
REMARK   93  A    between atoms: _214  and  _215
REMARK   94  A    between atoms: _214  and  _217
REMARK   95  A    between atoms: _217  and  _218
REMARK   96  A    between atoms: _220  and  _222
REMARK   97  A    between atoms: _222  and  _223
REMARK   98  A    between atoms: _222  and  _225
REMARK   99  A    between atoms: _225  and  _226
REMARK  100  A    between atoms: _226  and  _227
REMARK  101  A    between atoms: _230  and  _232
REMARK  102  A    between atoms: _232  and  _233
REMARK  103  A    between atoms: _232  and  _235
REMARK  104  A    between atoms: _235  and  _236
REMARK  105  A    between atoms: _239  and  _241
REMARK  106  A    between atoms: _241  and  _242
REMARK  107  A    between atoms: _241  and  _244
REMARK  108  A    between atoms: _248  and  _249
REMARK  109  A    between atoms: _254  and  _256
REMARK  110  A    between atoms: _256  and  _257
REMARK  111  A    between atoms: _256  and  _259
REMARK  112  A    between atoms: _259  and  _260
REMARK  113  A    between atoms: _263  and  _265
REMARK  114  A    between atoms: _265  and  _266
REMARK  115  A    between atoms: _269  and  _271
REMARK  116  A    between atoms: _271  and  _272
REMARK  117  A    between atoms: _271  and  _274
REMARK  118  A    between atoms: _274  and  _275
REMARK  119  A    between atoms: _278  and  _280
REMARK  120  A    between atoms: _280  and  _281
REMARK  121  A    between atoms: _284  and  _286
REMARK  122  A    between atoms: _286  and  _287
REMARK  123  A    between atoms: _286  and  _289
REMARK  124  A    between atoms: _292  and  _294
REMARK  125  A    between atoms: _294  and  _295
REMARK  126  A    between atoms: _294  and  _297
REMARK  127  A    between atoms: _297  and  _298
REMARK  128  A    between atoms: _298  and  _299
REMARK  129  A    between atoms: _302  and  _304
REMARK  130  A    between atoms: _304  and  _305
REMARK  131  A    between atoms: _304  and  _307
REMARK  132  A    between atoms: _307  and  _308
REMARK  133  A    between atoms: _308  and  _309
REMARK  134  A    between atoms: _309  and  _310
REMARK  135  A    between atoms: _319  and  _321
REMARK  136  A    between atoms: _321  and  _322
REMARK  137  A    between atoms: _321  and  _324
REMARK  138  A    between atoms: _324  and  _325
REMARK  139  A    between atoms: _331  and  _333
REMARK  140  A    between atoms: _333  and  _334
REMARK  141  A    between atoms: _333  and  _336
REMARK  142  A    between atoms: _336  and  _337
REMARK  143  A    between atoms: _340  and  _342
REMARK  144  A    between atoms: _342  and  _343
REMARK  145  A    between atoms: _342  and  _345
REMARK  146  A    between atoms: _345  and  _346
REMARK  147  A    between atoms: _346  and  _347
REMARK  148  A    between atoms: _347  and  _348
REMARK  149  A    between atoms: _357  and  _359
REMARK  150  A    between atoms: _359  and  _360
REMARK  151  A    between atoms: _359  and  _362
REMARK  152  A    between atoms: _362  and  _363
REMARK  153  A    between atoms: _366  and  _368
REMARK  154  A    between atoms: _368  and  _369
REMARK  155  A    between atoms: _368  and  _371
REMARK  156  A    between atoms: _371  and  _372
REMARK  157  A    between atoms: _372  and  _373
REMARK  158  A    between atoms: _378  and  _380
REMARK  159  A    between atoms: _380  and  _381
REMARK  160  A    between atoms: _380  and  _383
REMARK  161  A    between atoms: _383  and  _384
REMARK  162  A    between atoms: _384  and  _385
REMARK  163  A    between atoms: _388  and  _390
REMARK  164  A    between atoms: _390  and  _391
REMARK  165  A    between atoms: _390  and  _393
REMARK  166  A    between atoms: _393  and  _394
REMARK  167  A    between atoms: _397  and  _399
REMARK  168  A    between atoms: _399  and  _400
REMARK  169  A    between atoms: _399  and  _402
REMARK  170  A    between atoms: _402  and  _403
REMARK  171  A    between atoms: _403  and  _404
REMARK  172  A    between atoms: _406  and  _408
REMARK  173  A    between atoms: _408  and  _409
REMARK  174  A    between atoms: _408  and  _411
REMARK  175  A    between atoms: _413  and  _415
REMARK  176  A    between atoms: _415  and  _416
REMARK  177  A    between atoms: _415  and  _418
REMARK  178  A    between atoms: _418  and  _419
REMARK  179  A    between atoms: _419  and  _420
REMARK  180  A    between atoms: _425  and  _427
REMARK  181  A    between atoms: _427  and  _428
REMARK  182  A    between atoms: _427  and  _430
REMARK  183  A    between atoms: _430  and  _431
REMARK  184  A    between atoms: _431  and  _432
REMARK  185  A    between atoms: _432  and  _433
REMARK  186  A    between atoms: _433  and  _434
REMARK  187  A    between atoms: _438  and  _440
REMARK  188  A    between atoms: _440  and  _441
REMARK  189  A    between atoms: _440  and  _443
REMARK  190  A    between atoms: _443  and  _444
REMARK  191  A    between atoms: _449  and  _450
REMARK  192  A    between atoms: _452  and  _454
REMARK  193  A    between atoms: _454  and  _455
REMARK  194  A    between atoms: _454  and  _457
REMARK  195  A    between atoms: _457  and  _458
REMARK  196  A    between atoms: _458  and  _459
REMARK  197  A    between atoms: _464  and  _466
REMARK  198  A    between atoms: _466  and  _467
REMARK  199  A    between atoms: _469  and  _471
REMARK  200  A    between atoms: _471  and  _472
REMARK  201  A    between atoms: _471  and  _474
REMARK  202  A    between atoms: _474  and  _475
REMARK  203  A    between atoms: _480  and  _482
REMARK  204  A    between atoms: _482  and  _483
REMARK  205  A    between atoms: _486  and  _488
REMARK  206  A    between atoms: _488  and  _489
REMARK  207  A    between atoms: _488  and  _491
REMARK  208  A    between atoms: _491  and  _492
REMARK  209  A    between atoms: _492  and  _493
REMARK  210  A    between atoms: _493  and  _494
REMARK  211  A    between atoms: _494  and  _495
REMARK  212  A    between atoms: _499  and  _501
REMARK  213  A    between atoms: _501  and  _502
REMARK  214  A    between atoms: _501  and  _504
REMARK  215  A    between atoms: _504  and  _505
REMARK  216  A    between atoms: _505  and  _506
REMARK  217  A    between atoms: _505  and  _507
REMARK  218  A    between atoms: _506  and  MG_619
REMARK  219  A    between atoms: _510  and  _512
REMARK  220  A    between atoms: _512  and  _513
REMARK  221  A    between atoms: _512  and  _515
REMARK  222  A    between atoms: _515  and  _516
REMARK  223  A    between atoms: _522  and  _524
REMARK  224  A    between atoms: _524  and  _525
REMARK  225  A    between atoms: _524  and  _527
REMARK  226  A    between atoms: _527  and  _528
REMARK  227  A    between atoms: _530  and  _532
REMARK  228  A    between atoms: _532  and  _533
REMARK  229  A    between atoms: _532  and  _535
REMARK  230  A    between atoms: _538  and  _540
REMARK  231  A    between atoms: _540  and  _541
REMARK  232  A    between atoms: _540  and  _543
REMARK  233  A    between atoms: _543  and  _544
REMARK  234  A    between atoms: _550  and  _552
REMARK  235  A    between atoms: _552  and  _553
REMARK  236  A    between atoms: _552  and  _555
REMARK  237  A    between atoms: _555  and  _556
REMARK  238  A    between atoms: _560  and  _561
REMARK  239  A    between atoms: _566  and  _568
REMARK  240  A    between atoms: _568  and  _569
REMARK  241  A    between atoms: _568  and  _571
REMARK  242  A    between atoms: _571  and  _572
REMARK  243  A    between atoms: _578  and  _580
REMARK  244  A    between atoms: _580  and  _581
REMARK  245  A    between atoms: _580  and  _583
REMARK  246  A    between atoms: _583  and  _584
REMARK  247  A    between atoms: _589  and  _590
REMARK  248  A    between atoms: _592  and  _594
REMARK  249  A    between atoms: _594  and  _595
REMARK  250  A    between atoms: _594  and  _597
REMARK  251  A    between atoms: _597  and  _598
REMARK  252  A    between atoms: _598  and  _599
REMARK  253  A    between atoms: _601  and  _603
REMARK  254  A    between atoms: _603  and  _604
REMARK  255  A    between atoms: _603  and  _606
REMARK  256  A    between atoms: _606  and  _607
REMARK  257  A    between atoms: _610  and  _612
REMARK  258  A    between atoms: _612  and  _613
REMARK  259  A    between atoms: _612  and  _615
REMARK  260  A    between atoms: _615  and  _616
REMARK                            x       y       z     vdW  Elec       q    Type
REMARK                         _______ _______ _______ _____ _____    ______ ____
ROOT
ATOM      1  O   HOH     1      -1.733   0.999  51.414  0.00  0.00    +0.000 OA
ENDROOT
TORSDOF 0
REMARK  Name = ../refined-set-2016/3dnt/3dnt_pocket.pdb
REMARK  260 active torsions:
REMARK  status: ('A' for Active; 'I' for Inactive)
REMARK    1  A    between atoms: _1  and  _3
REMARK    2  A    between atoms: _3  and  _4
REMARK    3  A    between atoms: _3  and  _6
REMARK    4  A    between atoms: _6  and  _7
REMARK    5  A    between atoms: _12  and  _14
REMARK    6  A    between atoms: _14  and  _15
REMARK    7  A    between atoms: _14  and  _17
REMARK    8  A    between atoms: _17  and  _18
REMARK    9  A    between atoms: _21  and  _23
REMARK   10  A    between atoms: _23  and  _24
REMARK   11  A    between atoms: _23  and  _26
REMARK   12  A    between atoms: _26  and  _27
REMARK   13  A    between atoms: _31  and  _32
REMARK   14  A    between atoms: _37  and  _39
REMARK   15  A    between atoms: _39  and  _40
REMARK   16  A    between atoms: _39  and  _42
REMARK   17  A    between atoms: _42  and  _43
REMARK   18  A    between atoms: _46  and  _48
REMARK   19  A    between atoms: _48  and  _49
REMARK   20  A    between atoms: _48  and  _51
REMARK   21  A    between atoms: _51  and  _52
REMARK   22  A    between atoms: _54  and  _56
REMARK   23  A    between atoms: _56  and  _57
REMARK   24  A    between atoms: _56  and  _59
REMARK   25  A    between atoms: _59  and  _60
REMARK   26  A    between atoms: _62  and  _64
REMARK   27  A    between atoms: _64  and  _65
REMARK   28  A    between atoms: _64  and  _67
REMARK   29  A    between atoms: _70  and  _72
REMARK   30  A    between atoms: _72  and  _73
REMARK   31  A    between atoms: _75  and  _77
REMARK   32  A    between atoms: _77  and  _78
REMARK   33  A    between atoms: _77  and  _80
REMARK   34  A    between atoms: _80  and  _81
REMARK   35  A    between atoms: _83  and  _85
REMARK   36  A    between atoms: _85  and  _86
REMARK   37  A    between atoms: _85  and  _88
REMARK   38  A    between atoms: _91  and  _93
REMARK   39  A    between atoms: _93  and  _94
REMARK   40  A    between atoms: _97  and  _99
REMARK   41  A    between atoms: _99  and  _100
REMARK   42  A    between atoms: _102  and  _104
REMARK   43  A    between atoms: _104  and  _105
REMARK   44  A    between atoms: _108  and  _110
REMARK   45  A    between atoms: _110  and  _111
REMARK   46  A    between atoms: _110  and  _113
REMARK   47  A    between atoms: _113  and  _114
REMARK   48  A    between atoms: _114  and  _115
REMARK   49  A    between atoms: _120  and  _122
REMARK   50  A    between atoms: _122  and  _123
REMARK   51  A    between atoms: _122  and  _125
REMARK   52  A    between atoms: _125  and  _126
REMARK   53  A    between atoms: _126  and  _127
REMARK   54  A    between atoms: _130  and  _132
REMARK   55  A    between atoms: _132  and  _133
REMARK   56  A    between atoms: _132  and  _135
REMARK   57  A    between atoms: _135  and  _136
REMARK   58  A    between atoms: _136  and  _137
REMARK   59  A    between atoms: _137  and  _138
REMARK   60  A    between atoms: _138  and  _139
REMARK   61  A    between atoms: _143  and  _145
REMARK   62  A    between atoms: _145  and  _146
REMARK   63  A    between atoms: _145  and  _148
REMARK   64  A    between atoms: _148  and  _149
REMARK   65  A    between atoms: _152  and  _154
REMARK   66  A    between atoms: _154  and  _155
REMARK   67  A    between atoms: _154  and  _157
REMARK   68  A    between atoms: _157  and  _158
REMARK   69  A    between atoms: _163  and  _165
REMARK   70  A    between atoms: _165  and  _166
REMARK   71  A    between atoms: _165  and  _168
REMARK   72  A    between atoms: _168  and  _169
REMARK   73  A    between atoms: _172  and  _174
REMARK   74  A    between atoms: _174  and  _175
REMARK   75  A    between atoms: _174  and  _177
REMARK   76  A    between atoms: _177  and  _178
REMARK   77  A    between atoms: _181  and  _183
REMARK   78  A    between atoms: _183  and  _184
REMARK   79  A    between atoms: _183  and  _186
REMARK   80  A    between atoms: _186  and  _187
REMARK   81  A    between atoms: _187  and  _188
REMARK   82  A    between atoms: _188  and  _189
REMARK   83  A    between atoms: _189  and  _190
REMARK   84  A    between atoms: _194  and  _196
REMARK   85  A    between atoms: _196  and  _197
REMARK   86  A    between atoms: _196  and  _199
REMARK   87  A    between atoms: _199  and  _200
REMARK   88  A    between atoms: _203  and  _205
REMARK   89  A    between atoms: _205  and  _206
REMARK   90  A    between atoms: _205  and  _208
REMARK   91  A    between atoms: _208  and  _209
REMARK   92  A    between atoms: _212  and  _214
REMARK   93  A    between atoms: _214  and  _215
REMARK   94  A    between atoms: _214  and  _217
REMARK   95  A    between atoms: _217  and  _218
REMARK   96  A    between atoms: _220  and  _222
REMARK   97  A    between atoms: _222  and  _223
REMARK   98  A    between atoms: _222  and  _225
REMARK   99  A    between atoms: _225  and  _226
REMARK  100  A    between atoms: _226  and  _227
REMARK  101  A    between atoms: _230  and  _232
REMARK  102  A    between atoms: _232  and  _233
REMARK  103  A    between atoms: _232  and  _235
REMARK  104  A    between atoms: _235  and  _236
REMARK  105  A    between atoms: _239  and  _241
REMARK  106  A    between atoms: _241  and  _242
REMARK  107  A    between atoms: _241  and  _244
REMARK  108  A    between atoms: _248  and  _249
REMARK  109  A    between atoms: _254  and  _256
REMARK  110  A    between atoms: _256  and  _257
REMARK  111  A    between atoms: _256  and  _259
REMARK  112  A    between atoms: _259  and  _260
REMARK  113  A    between atoms: _263  and  _265
REMARK  114  A    between atoms: _265  and  _266
REMARK  115  A    between atoms: _269  and  _271
REMARK  116  A    between atoms: _271  and  _272
REMARK  117  A    between atoms: _271  and  _274
REMARK  118  A    between atoms: _274  and  _275
REMARK  119  A    between atoms: _278  and  _280
REMARK  120  A    between atoms: _280  and  _281
REMARK  121  A    between atoms: _284  and  _286
REMARK  122  A    between atoms: _286  and  _287
REMARK  123  A    between atoms: _286  and  _289
REMARK  124  A    between atoms: _292  and  _294
REMARK  125  A    between atoms: _294  and  _295
REMARK  126  A    between atoms: _294  and  _297
REMARK  127  A    between atoms: _297  and  _298
REMARK  128  A    between atoms: _298  and  _299
REMARK  129  A    between atoms: _302  and  _304
REMARK  130  A    between atoms: _304  and  _305
REMARK  131  A    between atoms: _304  and  _307
REMARK  132  A    between atoms: _307  and  _308
REMARK  133  A    between atoms: _308  and  _309
REMARK  134  A    between atoms: _309  and  _310
REMARK  135  A    between atoms: _319  and  _321
REMARK  136  A    between atoms: _321  and  _322
REMARK  137  A    between atoms: _321  and  _324
REMARK  138  A    between atoms: _324  and  _325
REMARK  139  A    between atoms: _331  and  _333
REMARK  140  A    between atoms: _333  and  _334
REMARK  141  A    between atoms: _333  and  _336
REMARK  142  A    between atoms: _336  and  _337
REMARK  143  A    between atoms: _340  and  _342
REMARK  144  A    between atoms: _342  and  _343
REMARK  145  A    between atoms: _342  and  _345
REMARK  146  A    between atoms: _345  and  _346
REMARK  147  A    between atoms: _346  and  _347
REMARK  148  A    between atoms: _347  and  _348
REMARK  149  A    between atoms: _357  and  _359
REMARK  150  A    between atoms: _359  and  _360
REMARK  151  A    between atoms: _359  and  _362
REMARK  152  A    between atoms: _362  and  _363
REMARK  153  A    between atoms: _366  and  _368
REMARK  154  A    between atoms: _368  and  _369
REMARK  155  A    between atoms: _368  and  _371
REMARK  156  A    between atoms: _371  and  _372
REMARK  157  A    between atoms: _372  and  _373
REMARK  158  A    between atoms: _378  and  _380
REMARK  159  A    between atoms: _380  and  _381
REMARK  160  A    between atoms: _380  and  _383
REMARK  161  A    between atoms: _383  and  _384
REMARK  162  A    between atoms: _384  and  _385
REMARK  163  A    between atoms: _388  and  _390
REMARK  164  A    between atoms: _390  and  _391
REMARK  165  A    between atoms: _390  and  _393
REMARK  166  A    between atoms: _393  and  _394
REMARK  167  A    between atoms: _397  and  _399
REMARK  168  A    between atoms: _399  and  _400
REMARK  169  A    between atoms: _399  and  _402
REMARK  170  A    between atoms: _402  and  _403
REMARK  171  A    between atoms: _403  and  _404
REMARK  172  A    between atoms: _406  and  _408
REMARK  173  A    between atoms: _408  and  _409
REMARK  174  A    between atoms: _408  and  _411
REMARK  175  A    between atoms: _413  and  _415
REMARK  176  A    between atoms: _415  and  _416
REMARK  177  A    between atoms: _415  and  _418
REMARK  178  A    between atoms: _418  and  _419
REMARK  179  A    between atoms: _419  and  _420
REMARK  180  A    between atoms: _425  and  _427
REMARK  181  A    between atoms: _427  and  _428
REMARK  182  A    between atoms: _427  and  _430
REMARK  183  A    between atoms: _430  and  _431
REMARK  184  A    between atoms: _431  and  _432
REMARK  185  A    between atoms: _432  and  _433
REMARK  186  A    between atoms: _433  and  _434
REMARK  187  A    between atoms: _438  and  _440
REMARK  188  A    between atoms: _440  and  _441
REMARK  189  A    between atoms: _440  and  _443
REMARK  190  A    between atoms: _443  and  _444
REMARK  191  A    between atoms: _449  and  _450
REMARK  192  A    between atoms: _452  and  _454
REMARK  193  A    between atoms: _454  and  _455
REMARK  194  A    between atoms: _454  and  _457
REMARK  195  A    between atoms: _457  and  _458
REMARK  196  A    between atoms: _458  and  _459
REMARK  197  A    between atoms: _464  and  _466
REMARK  198  A    between atoms: _466  and  _467
REMARK  199  A    between atoms: _469  and  _471
REMARK  200  A    between atoms: _471  and  _472
REMARK  201  A    between atoms: _471  and  _474
REMARK  202  A    between atoms: _474  and  _475
REMARK  203  A    between atoms: _480  and  _482
REMARK  204  A    between atoms: _482  and  _483
REMARK  205  A    between atoms: _486  and  _488
REMARK  206  A    between atoms: _488  and  _489
REMARK  207  A    between atoms: _488  and  _491
REMARK  208  A    between atoms: _491  and  _492
REMARK  209  A    between atoms: _492  and  _493
REMARK  210  A    between atoms: _493  and  _494
REMARK  211  A    between atoms: _494  and  _495
REMARK  212  A    between atoms: _499  and  _501
REMARK  213  A    between atoms: _501  and  _502
REMARK  214  A    between atoms: _501  and  _504
REMARK  215  A    between atoms: _504  and  _505
REMARK  216  A    between atoms: _505  and  _506
REMARK  217  A    between atoms: _505  and  _507
REMARK  218  A    between atoms: _506  and  MG_619
REMARK  219  A    between atoms: _510  and  _512
REMARK  220  A    between atoms: _512  and  _513
REMARK  221  A    between atoms: _512  and  _515
REMARK  222  A    between atoms: _515  and  _516
REMARK  223  A    between atoms: _522  and  _524
REMARK  224  A    between atoms: _524  and  _525
REMARK  225  A    between atoms: _524  and  _527
REMARK  226  A    between atoms: _527  and  _528
REMARK  227  A    between atoms: _530  and  _532
REMARK  228  A    between atoms: _532  and  _533
REMARK  229  A    between atoms: _532  and  _535
REMARK  230  A    between atoms: _538  and  _540
REMARK  231  A    between atoms: _540  and  _541
REMARK  232  A    between atoms: _540  and  _543
REMARK  233  A    between atoms: _543  and  _544
REMARK  234  A    between atoms: _550  and  _552
REMARK  235  A    between atoms: _552  and  _553
REMARK  236  A    between atoms: _552  and  _555
REMARK  237  A    between atoms: _555  and  _556
REMARK  238  A    between atoms: _560  and  _561
REMARK  239  A    between atoms: _566  and  _568
REMARK  240  A    between atoms: _568  and  _569
REMARK  241  A    between atoms: _568  and  _571
REMARK  242  A    between atoms: _571  and  _572
REMARK  243  A    between atoms: _578  and  _580
REMARK  244  A    between atoms: _580  and  _581
REMARK  245  A    between atoms: _580  and  _583
REMARK  246  A    between atoms: _583  and  _584
REMARK  247  A    between atoms: _589  and  _590
REMARK  248  A    between atoms: _592  and  _594
REMARK  249  A    between atoms: _594  and  _595
REMARK  250  A    between atoms: _594  and  _597
REMARK  251  A    between atoms: _597  and  _598
REMARK  252  A    between atoms: _598  and  _599
REMARK  253  A    between atoms: _601  and  _603
REMARK  254  A    between atoms: _603  and  _604
REMARK  255  A    between atoms: _603  and  _606
REMARK  256  A    between atoms: _606  and  _607
REMARK  257  A    between atoms: _610  and  _612
REMARK  258  A    between atoms: _612  and  _613
REMARK  259  A    between atoms: _612  and  _615
REMARK  260  A    between atoms: _615  and  _616
REMARK                            x       y       z     vdW  Elec       q    Type
REMARK                         _______ _______ _______ _____ _____    ______ ____
ROOT
ATOM      1  O   HOH     1      -3.414   0.439  65.052  0.00  0.00    +0.000 OA
ENDROOT
TORSDOF 0
REMARK  Name = ../refined-set-2016/3dnt/3dnt_pocket.pdb
REMARK  260 active torsions:
REMARK  status: ('A' for Active; 'I' for Inactive)
REMARK    1  A    between atoms: _1  and  _3
REMARK    2  A    between atoms: _3  and  _4
REMARK    3  A    between atoms: _3  and  _6
REMARK    4  A    between atoms: _6  and  _7
REMARK    5  A    between atoms: _12  and  _14
REMARK    6  A    between atoms: _14  and  _15
REMARK    7  A    between atoms: _14  and  _17
REMARK    8  A    between atoms: _17  and  _18
REMARK    9  A    between atoms: _21  and  _23
REMARK   10  A    between atoms: _23  and  _24
REMARK   11  A    between atoms: _23  and  _26
REMARK   12  A    between atoms: _26  and  _27
REMARK   13  A    between atoms: _31  and  _32
REMARK   14  A    between atoms: _37  and  _39
REMARK   15  A    between atoms: _39  and  _40
REMARK   16  A    between atoms: _39  and  _42
REMARK   17  A    between atoms: _42  and  _43
REMARK   18  A    between atoms: _46  and  _48
REMARK   19  A    between atoms: _48  and  _49
REMARK   20  A    between atoms: _48  and  _51
REMARK   21  A    between atoms: _51  and  _52
REMARK   22  A    between atoms: _54  and  _56
REMARK   23  A    between atoms: _56  and  _57
REMARK   24  A    between atoms: _56  and  _59
REMARK   25  A    between atoms: _59  and  _60
REMARK   26  A    between atoms: _62  and  _64
REMARK   27  A    between atoms: _64  and  _65
REMARK   28  A    between atoms: _64  and  _67
REMARK   29  A    between atoms: _70  and  _72
REMARK   30  A    between atoms: _72  and  _73
REMARK   31  A    between atoms: _75  and  _77
REMARK   32  A    between atoms: _77  and  _78
REMARK   33  A    between atoms: _77  and  _80
REMARK   34  A    between atoms: _80  and  _81
REMARK   35  A    between atoms: _83  and  _85
REMARK   36  A    between atoms: _85  and  _86
REMARK   37  A    between atoms: _85  and  _88
REMARK   38  A    between atoms: _91  and  _93
REMARK   39  A    between atoms: _93  and  _94
REMARK   40  A    between atoms: _97  and  _99
REMARK   41  A    between atoms: _99  and  _100
REMARK   42  A    between atoms: _102  and  _104
REMARK   43  A    between atoms: _104  and  _105
REMARK   44  A    between atoms: _108  and  _110
REMARK   45  A    between atoms: _110  and  _111
REMARK   46  A    between atoms: _110  and  _113
REMARK   47  A    between atoms: _113  and  _114
REMARK   48  A    between atoms: _114  and  _115
REMARK   49  A    between atoms: _120  and  _122
REMARK   50  A    between atoms: _122  and  _123
REMARK   51  A    between atoms: _122  and  _125
REMARK   52  A    between atoms: _125  and  _126
REMARK   53  A    between atoms: _126  and  _127
REMARK   54  A    between atoms: _130  and  _132
REMARK   55  A    between atoms: _132  and  _133
REMARK   56  A    between atoms: _132  and  _135
REMARK   57  A    between atoms: _135  and  _136
REMARK   58  A    between atoms: _136  and  _137
REMARK   59  A    between atoms: _137  and  _138
REMARK   60  A    between atoms: _138  and  _139
REMARK   61  A    between atoms: _143  and  _145
REMARK   62  A    between atoms: _145  and  _146
REMARK   63  A    between atoms: _145  and  _148
REMARK   64  A    between atoms: _148  and  _149
REMARK   65  A    between atoms: _152  and  _154
REMARK   66  A    between atoms: _154  and  _155
REMARK   67  A    between atoms: _154  and  _157
REMARK   68  A    between atoms: _157  and  _158
REMARK   69  A    between atoms: _163  and  _165
REMARK   70  A    between atoms: _165  and  _166
REMARK   71  A    between atoms: _165  and  _168
REMARK   72  A    between atoms: _168  and  _169
REMARK   73  A    between atoms: _172  and  _174
REMARK   74  A    between atoms: _174  and  _175
REMARK   75  A    between atoms: _174  and  _177
REMARK   76  A    between atoms: _177  and  _178
REMARK   77  A    between atoms: _181  and  _183
REMARK   78  A    between atoms: _183  and  _184
REMARK   79  A    between atoms: _183  and  _186
REMARK   80  A    between atoms: _186  and  _187
REMARK   81  A    between atoms: _187  and  _188
REMARK   82  A    between atoms: _188  and  _189
REMARK   83  A    between atoms: _189  and  _190
REMARK   84  A    between atoms: _194  and  _196
REMARK   85  A    between atoms: _196  and  _197
REMARK   86  A    between atoms: _196  and  _199
REMARK   87  A    between atoms: _199  and  _200
REMARK   88  A    between atoms: _203  and  _205
REMARK   89  A    between atoms: _205  and  _206
REMARK   90  A    between atoms: _205  and  _208
REMARK   91  A    between atoms: _208  and  _209
REMARK   92  A    between atoms: _212  and  _214
REMARK   93  A    between atoms: _214  and  _215
REMARK   94  A    between atoms: _214  and  _217
REMARK   95  A    between atoms: _217  and  _218
REMARK   96  A    between atoms: _220  and  _222
REMARK   97  A    between atoms: _222  and  _223
REMARK   98  A    between atoms: _222  and  _225
REMARK   99  A    between atoms: _225  and  _226
REMARK  100  A    between atoms: _226  and  _227
REMARK  101  A    between atoms: _230  and  _232
REMARK  102  A    between atoms: _232  and  _233
REMARK  103  A    between atoms: _232  and  _235
REMARK  104  A    between atoms: _235  and  _236
REMARK  105  A    between atoms: _239  and  _241
REMARK  106  A    between atoms: _241  and  _242
REMARK  107  A    between atoms: _241  and  _244
REMARK  108  A    between atoms: _248  and  _249
REMARK  109  A    between atoms: _254  and  _256
REMARK  110  A    between atoms: _256  and  _257
REMARK  111  A    between atoms: _256  and  _259
REMARK  112  A    between atoms: _259  and  _260
REMARK  113  A    between atoms: _263  and  _265
REMARK  114  A    between atoms: _265  and  _266
REMARK  115  A    between atoms: _269  and  _271
REMARK  116  A    between atoms: _271  and  _272
REMARK  117  A    between atoms: _271  and  _274
REMARK  118  A    between atoms: _274  and  _275
REMARK  119  A    between atoms: _278  and  _280
REMARK  120  A    between atoms: _280  and  _281
REMARK  121  A    between atoms: _284  and  _286
REMARK  122  A    between atoms: _286  and  _287
REMARK  123  A    between atoms: _286  and  _289
REMARK  124  A    between atoms: _292  and  _294
REMARK  125  A    between atoms: _294  and  _295
REMARK  126  A    between atoms: _294  and  _297
REMARK  127  A    between atoms: _297  and  _298
REMARK  128  A    between atoms: _298  and  _299
REMARK  129  A    between atoms: _302  and  _304
REMARK  130  A    between atoms: _304  and  _305
REMARK  131  A    between atoms: _304  and  _307
REMARK  132  A    between atoms: _307  and  _308
REMARK  133  A    between atoms: _308  and  _309
REMARK  134  A    between atoms: _309  and  _310
REMARK  135  A    between atoms: _319  and  _321
REMARK  136  A    between atoms: _321  and  _322
REMARK  137  A    between atoms: _321  and  _324
REMARK  138  A    between atoms: _324  and  _325
REMARK  139  A    between atoms: _331  and  _333
REMARK  140  A    between atoms: _333  and  _334
REMARK  141  A    between atoms: _333  and  _336
REMARK  142  A    between atoms: _336  and  _337
REMARK  143  A    between atoms: _340  and  _342
REMARK  144  A    between atoms: _342  and  _343
REMARK  145  A    between atoms: _342  and  _345
REMARK  146  A    between atoms: _345  and  _346
REMARK  147  A    between atoms: _346  and  _347
REMARK  148  A    between atoms: _347  and  _348
REMARK  149  A    between atoms: _357  and  _359
REMARK  150  A    between atoms: _359  and  _360
REMARK  151  A    between atoms: _359  and  _362
REMARK  152  A    between atoms: _362  and  _363
REMARK  153  A    between atoms: _366  and  _368
REMARK  154  A    between atoms: _368  and  _369
REMARK  155  A    between atoms: _368  and  _371
REMARK  156  A    between atoms: _371  and  _372
REMARK  157  A    between atoms: _372  and  _373
REMARK  158  A    between atoms: _378  and  _380
REMARK  159  A    between atoms: _380  and  _381
REMARK  160  A    between atoms: _380  and  _383
REMARK  161  A    between atoms: _383  and  _384
REMARK  162  A    between atoms: _384  and  _385
REMARK  163  A    between atoms: _388  and  _390
REMARK  164  A    between atoms: _390  and  _391
REMARK  165  A    between atoms: _390  and  _393
REMARK  166  A    between atoms: _393  and  _394
REMARK  167  A    between atoms: _397  and  _399
REMARK  168  A    between atoms: _399  and  _400
REMARK  169  A    between atoms: _399  and  _402
REMARK  170  A    between atoms: _402  and  _403
REMARK  171  A    between atoms: _403  and  _404
REMARK  172  A    between atoms: _406  and  _408
REMARK  173  A    between atoms: _408  and  _409
REMARK  174  A    between atoms: _408  and  _411
REMARK  175  A    between atoms: _413  and  _415
REMARK  176  A    between atoms: _415  and  _416
REMARK  177  A    between atoms: _415  and  _418
REMARK  178  A    between atoms: _418  and  _419
REMARK  179  A    between atoms: _419  and  _420
REMARK  180  A    between atoms: _425  and  _427
REMARK  181  A    between atoms: _427  and  _428
REMARK  182  A    between atoms: _427  and  _430
REMARK  183  A    between atoms: _430  and  _431
REMARK  184  A    between atoms: _431  and  _432
REMARK  185  A    between atoms: _432  and  _433
REMARK  186  A    between atoms: _433  and  _434
REMARK  187  A    between atoms: _438  and  _440
REMARK  188  A    between atoms: _440  and  _441
REMARK  189  A    between atoms: _440  and  _443
REMARK  190  A    between atoms: _443  and  _444
REMARK  191  A    between atoms: _449  and  _450
REMARK  192  A    between atoms: _452  and  _454
REMARK  193  A    between atoms: _454  and  _455
REMARK  194  A    between atoms: _454  and  _457
REMARK  195  A    between atoms: _457  and  _458
REMARK  196  A    between atoms: _458  and  _459
REMARK  197  A    between atoms: _464  and  _466
REMARK  198  A    between atoms: _466  and  _467
REMARK  199  A    between atoms: _469  and  _471
REMARK  200  A    between atoms: _471  and  _472
REMARK  201  A    between atoms: _471  and  _474
REMARK  202  A    between atoms: _474  and  _475
REMARK  203  A    between atoms: _480  and  _482
REMARK  204  A    between atoms: _482  and  _483
REMARK  205  A    between atoms: _486  and  _488
REMARK  206  A    between atoms: _488  and  _489
REMARK  207  A    between atoms: _488  and  _491
REMARK  208  A    between atoms: _491  and  _492
REMARK  209  A    between atoms: _492  and  _493
REMARK  210  A    between atoms: _493  and  _494
REMARK  211  A    between atoms: _494  and  _495
REMARK  212  A    between atoms: _499  and  _501
REMARK  213  A    between atoms: _501  and  _502
REMARK  214  A    between atoms: _501  and  _504
REMARK  215  A    between atoms: _504  and  _505
REMARK  216  A    between atoms: _505  and  _506
REMARK  217  A    between atoms: _505  and  _507
REMARK  218  A    between atoms: _506  and  MG_619
REMARK  219  A    between atoms: _510  and  _512
REMARK  220  A    between atoms: _512  and  _513
REMARK  221  A    between atoms: _512  and  _515
REMARK  222  A    between atoms: _515  and  _516
REMARK  223  A    between atoms: _522  and  _524
REMARK  224  A    between atoms: _524  and  _525
REMARK  225  A    between atoms: _524  and  _527
REMARK  226  A    between atoms: _527  and  _528
REMARK  227  A    between atoms: _530  and  _532
REMARK  228  A    between atoms: _532  and  _533
REMARK  229  A    between atoms: _532  and  _535
REMARK  230  A    between atoms: _538  and  _540
REMARK  231  A    between atoms: _540  and  _541
REMARK  232  A    between atoms: _540  and  _543
REMARK  233  A    between atoms: _543  and  _544
REMARK  234  A    between atoms: _550  and  _552
REMARK  235  A    between atoms: _552  and  _553
REMARK  236  A    between atoms: _552  and  _555
REMARK  237  A    between atoms: _555  and  _556
REMARK  238  A    between atoms: _560  and  _561
REMARK  239  A    between atoms: _566  and  _568
REMARK  240  A    between atoms: _568  and  _569
REMARK  241  A    between atoms: _568  and  _571
REMARK  242  A    between atoms: _571  and  _572
REMARK  243  A    between atoms: _578  and  _580
REMARK  244  A    between atoms: _580  and  _581
REMARK  245  A    between atoms: _580  and  _583
REMARK  246  A    between atoms: _583  and  _584
REMARK  247  A    between atoms: _589  and  _590
REMARK  248  A    between atoms: _592  and  _594
REMARK  249  A    between atoms: _594  and  _595
REMARK  250  A    between atoms: _594  and  _597
REMARK  251  A    between atoms: _597  and  _598
REMARK  252  A    between atoms: _598  and  _599
REMARK  253  A    between atoms: _601  and  _603
REMARK  254  A    between atoms: _603  and  _604
REMARK  255  A    between atoms: _603  and  _606
REMARK  256  A    between atoms: _606  and  _607
REMARK  257  A    between atoms: _610  and  _612
REMARK  258  A    between atoms: _612  and  _613
REMARK  259  A    between atoms: _612  and  _615
REMARK  260  A    between atoms: _615  and  _616
REMARK                            x       y       z     vdW  Elec       q    Type
REMARK                         _______ _______ _______ _____ _____    ______ ____
ROOT
ATOM      1  O   HOH     1       4.827  13.197  48.402  0.00  0.00    +0.000 OA
ENDROOT
TORSDOF 0
REMARK  Name = ../refined-set-2016/3dnt/3dnt_pocket.pdb
REMARK  260 active torsions:
REMARK  status: ('A' for Active; 'I' for Inactive)
REMARK    1  A    between atoms: _1  and  _3
REMARK    2  A    between atoms: _3  and  _4
REMARK    3  A    between atoms: _3  and  _6
REMARK    4  A    between atoms: _6  and  _7
REMARK    5  A    between atoms: _12  and  _14
REMARK    6  A    between atoms: _14  and  _15
REMARK    7  A    between atoms: _14  and  _17
REMARK    8  A    between atoms: _17  and  _18
REMARK    9  A    between atoms: _21  and  _23
REMARK   10  A    between atoms: _23  and  _24
REMARK   11  A    between atoms: _23  and  _26
REMARK   12  A    between atoms: _26  and  _27
REMARK   13  A    between atoms: _31  and  _32
REMARK   14  A    between atoms: _37  and  _39
REMARK   15  A    between atoms: _39  and  _40
REMARK   16  A    between atoms: _39  and  _42
REMARK   17  A    between atoms: _42  and  _43
REMARK   18  A    between atoms: _46  and  _48
REMARK   19  A    between atoms: _48  and  _49
REMARK   20  A    between atoms: _48  and  _51
REMARK   21  A    between atoms: _51  and  _52
REMARK   22  A    between atoms: _54  and  _56
REMARK   23  A    between atoms: _56  and  _57
REMARK   24  A    between atoms: _56  and  _59
REMARK   25  A    between atoms: _59  and  _60
REMARK   26  A    between atoms: _62  and  _64
REMARK   27  A    between atoms: _64  and  _65
REMARK   28  A    between atoms: _64  and  _67
REMARK   29  A    between atoms: _70  and  _72
REMARK   30  A    between atoms: _72  and  _73
REMARK   31  A    between atoms: _75  and  _77
REMARK   32  A    between atoms: _77  and  _78
REMARK   33  A    between atoms: _77  and  _80
REMARK   34  A    between atoms: _80  and  _81
REMARK   35  A    between atoms: _83  and  _85
REMARK   36  A    between atoms: _85  and  _86
REMARK   37  A    between atoms: _85  and  _88
REMARK   38  A    between atoms: _91  and  _93
REMARK   39  A    between atoms: _93  and  _94
REMARK   40  A    between atoms: _97  and  _99
REMARK   41  A    between atoms: _99  and  _100
REMARK   42  A    between atoms: _102  and  _104
REMARK   43  A    between atoms: _104  and  _105
REMARK   44  A    between atoms: _108  and  _110
REMARK   45  A    between atoms: _110  and  _111
REMARK   46  A    between atoms: _110  and  _113
REMARK   47  A    between atoms: _113  and  _114
REMARK   48  A    between atoms: _114  and  _115
REMARK   49  A    between atoms: _120  and  _122
REMARK   50  A    between atoms: _122  and  _123
REMARK   51  A    between atoms: _122  and  _125
REMARK   52  A    between atoms: _125  and  _126
REMARK   53  A    between atoms: _126  and  _127
REMARK   54  A    between atoms: _130  and  _132
REMARK   55  A    between atoms: _132  and  _133
REMARK   56  A    between atoms: _132  and  _135
REMARK   57  A    between atoms: _135  and  _136
REMARK   58  A    between atoms: _136  and  _137
REMARK   59  A    between atoms: _137  and  _138
REMARK   60  A    between atoms: _138  and  _139
REMARK   61  A    between atoms: _143  and  _145
REMARK   62  A    between atoms: _145  and  _146
REMARK   63  A    between atoms: _145  and  _148
REMARK   64  A    between atoms: _148  and  _149
REMARK   65  A    between atoms: _152  and  _154
REMARK   66  A    between atoms: _154  and  _155
REMARK   67  A    between atoms: _154  and  _157
REMARK   68  A    between atoms: _157  and  _158
REMARK   69  A    between atoms: _163  and  _165
REMARK   70  A    between atoms: _165  and  _166
REMARK   71  A    between atoms: _165  and  _168
REMARK   72  A    between atoms: _168  and  _169
REMARK   73  A    between atoms: _172  and  _174
REMARK   74  A    between atoms: _174  and  _175
REMARK   75  A    between atoms: _174  and  _177
REMARK   76  A    between atoms: _177  and  _178
REMARK   77  A    between atoms: _181  and  _183
REMARK   78  A    between atoms: _183  and  _184
REMARK   79  A    between atoms: _183  and  _186
REMARK   80  A    between atoms: _186  and  _187
REMARK   81  A    between atoms: _187  and  _188
REMARK   82  A    between atoms: _188  and  _189
REMARK   83  A    between atoms: _189  and  _190
REMARK   84  A    between atoms: _194  and  _196
REMARK   85  A    between atoms: _196  and  _197
REMARK   86  A    between atoms: _196  and  _199
REMARK   87  A    between atoms: _199  and  _200
REMARK   88  A    between atoms: _203  and  _205
REMARK   89  A    between atoms: _205  and  _206
REMARK   90  A    between atoms: _205  and  _208
REMARK   91  A    between atoms: _208  and  _209
REMARK   92  A    between atoms: _212  and  _214
REMARK   93  A    between atoms: _214  and  _215
REMARK   94  A    between atoms: _214  and  _217
REMARK   95  A    between atoms: _217  and  _218
REMARK   96  A    between atoms: _220  and  _222
REMARK   97  A    between atoms: _222  and  _223
REMARK   98  A    between atoms: _222  and  _225
REMARK   99  A    between atoms: _225  and  _226
REMARK  100  A    between atoms: _226  and  _227
REMARK  101  A    between atoms: _230  and  _232
REMARK  102  A    between atoms: _232  and  _233
REMARK  103  A    between atoms: _232  and  _235
REMARK  104  A    between atoms: _235  and  _236
REMARK  105  A    between atoms: _239  and  _241
REMARK  106  A    between atoms: _241  and  _242
REMARK  107  A    between atoms: _241  and  _244
REMARK  108  A    between atoms: _248  and  _249
REMARK  109  A    between atoms: _254  and  _256
REMARK  110  A    between atoms: _256  and  _257
REMARK  111  A    between atoms: _256  and  _259
REMARK  112  A    between atoms: _259  and  _260
REMARK  113  A    between atoms: _263  and  _265
REMARK  114  A    between atoms: _265  and  _266
REMARK  115  A    between atoms: _269  and  _271
REMARK  116  A    between atoms: _271  and  _272
REMARK  117  A    between atoms: _271  and  _274
REMARK  118  A    between atoms: _274  and  _275
REMARK  119  A    between atoms: _278  and  _280
REMARK  120  A    between atoms: _280  and  _281
REMARK  121  A    between atoms: _284  and  _286
REMARK  122  A    between atoms: _286  and  _287
REMARK  123  A    between atoms: _286  and  _289
REMARK  124  A    between atoms: _292  and  _294
REMARK  125  A    between atoms: _294  and  _295
REMARK  126  A    between atoms: _294  and  _297
REMARK  127  A    between atoms: _297  and  _298
REMARK  128  A    between atoms: _298  and  _299
REMARK  129  A    between atoms: _302  and  _304
REMARK  130  A    between atoms: _304  and  _305
REMARK  131  A    between atoms: _304  and  _307
REMARK  132  A    between atoms: _307  and  _308
REMARK  133  A    between atoms: _308  and  _309
REMARK  134  A    between atoms: _309  and  _310
REMARK  135  A    between atoms: _319  and  _321
REMARK  136  A    between atoms: _321  and  _322
REMARK  137  A    between atoms: _321  and  _324
REMARK  138  A    between atoms: _324  and  _325
REMARK  139  A    between atoms: _331  and  _333
REMARK  140  A    between atoms: _333  and  _334
REMARK  141  A    between atoms: _333  and  _336
REMARK  142  A    between atoms: _336  and  _337
REMARK  143  A    between atoms: _340  and  _342
REMARK  144  A    between atoms: _342  and  _343
REMARK  145  A    between atoms: _342  and  _345
REMARK  146  A    between atoms: _345  and  _346
REMARK  147  A    between atoms: _346  and  _347
REMARK  148  A    between atoms: _347  and  _348
REMARK  149  A    between atoms: _357  and  _359
REMARK  150  A    between atoms: _359  and  _360
REMARK  151  A    between atoms: _359  and  _362
REMARK  152  A    between atoms: _362  and  _363
REMARK  153  A    between atoms: _366  and  _368
REMARK  154  A    between atoms: _368  and  _369
REMARK  155  A    between atoms: _368  and  _371
REMARK  156  A    between atoms: _371  and  _372
REMARK  157  A    between atoms: _372  and  _373
REMARK  158  A    between atoms: _378  and  _380
REMARK  159  A    between atoms: _380  and  _381
REMARK  160  A    between atoms: _380  and  _383
REMARK  161  A    between atoms: _383  and  _384
REMARK  162  A    between atoms: _384  and  _385
REMARK  163  A    between atoms: _388  and  _390
REMARK  164  A    between atoms: _390  and  _391
REMARK  165  A    between atoms: _390  and  _393
REMARK  166  A    between atoms: _393  and  _394
REMARK  167  A    between atoms: _397  and  _399
REMARK  168  A    between atoms: _399  and  _400
REMARK  169  A    between atoms: _399  and  _402
REMARK  170  A    between atoms: _402  and  _403
REMARK  171  A    between atoms: _403  and  _404
REMARK  172  A    between atoms: _406  and  _408
REMARK  173  A    between atoms: _408  and  _409
REMARK  174  A    between atoms: _408  and  _411
REMARK  175  A    between atoms: _413  and  _415
REMARK  176  A    between atoms: _415  and  _416
REMARK  177  A    between atoms: _415  and  _418
REMARK  178  A    between atoms: _418  and  _419
REMARK  179  A    between atoms: _419  and  _420
REMARK  180  A    between atoms: _425  and  _427
REMARK  181  A    between atoms: _427  and  _428
REMARK  182  A    between atoms: _427  and  _430
REMARK  183  A    between atoms: _430  and  _431
REMARK  184  A    between atoms: _431  and  _432
REMARK  185  A    between atoms: _432  and  _433
REMARK  186  A    between atoms: _433  and  _434
REMARK  187  A    between atoms: _438  and  _440
REMARK  188  A    between atoms: _440  and  _441
REMARK  189  A    between atoms: _440  and  _443
REMARK  190  A    between atoms: _443  and  _444
REMARK  191  A    between atoms: _449  and  _450
REMARK  192  A    between atoms: _452  and  _454
REMARK  193  A    between atoms: _454  and  _455
REMARK  194  A    between atoms: _454  and  _457
REMARK  195  A    between atoms: _457  and  _458
REMARK  196  A    between atoms: _458  and  _459
REMARK  197  A    between atoms: _464  and  _466
REMARK  198  A    between atoms: _466  and  _467
REMARK  199  A    between atoms: _469  and  _471
REMARK  200  A    between atoms: _471  and  _472
REMARK  201  A    between atoms: _471  and  _474
REMARK  202  A    between atoms: _474  and  _475
REMARK  203  A    between atoms: _480  and  _482
REMARK  204  A    between atoms: _482  and  _483
REMARK  205  A    between atoms: _486  and  _488
REMARK  206  A    between atoms: _488  and  _489
REMARK  207  A    between atoms: _488  and  _491
REMARK  208  A    between atoms: _491  and  _492
REMARK  209  A    between atoms: _492  and  _493
REMARK  210  A    between atoms: _493  and  _494
REMARK  211  A    between atoms: _494  and  _495
REMARK  212  A    between atoms: _499  and  _501
REMARK  213  A    between atoms: _501  and  _502
REMARK  214  A    between atoms: _501  and  _504
REMARK  215  A    between atoms: _504  and  _505
REMARK  216  A    between atoms: _505  and  _506
REMARK  217  A    between atoms: _505  and  _507
REMARK  218  A    between atoms: _506  and  MG_619
REMARK  219  A    between atoms: _510  and  _512
REMARK  220  A    between atoms: _512  and  _513
REMARK  221  A    between atoms: _512  and  _515
REMARK  222  A    between atoms: _515  and  _516
REMARK  223  A    between atoms: _522  and  _524
REMARK  224  A    between atoms: _524  and  _525
REMARK  225  A    between atoms: _524  and  _527
REMARK  226  A    between atoms: _527  and  _528
REMARK  227  A    between atoms: _530  and  _532
REMARK  228  A    between atoms: _532  and  _533
REMARK  229  A    between atoms: _532  and  _535
REMARK  230  A    between atoms: _538  and  _540
REMARK  231  A    between atoms: _540  and  _541
REMARK  232  A    between atoms: _540  and  _543
REMARK  233  A    between atoms: _543  and  _544
REMARK  234  A    between atoms: _550  and  _552
REMARK  235  A    between atoms: _552  and  _553
REMARK  236  A    between atoms: _552  and  _555
REMARK  237  A    between atoms: _555  and  _556
REMARK  238  A    between atoms: _560  and  _561
REMARK  239  A    between atoms: _566  and  _568
REMARK  240  A    between atoms: _568  and  _569
REMARK  241  A    between atoms: _568  and  _571
REMARK  242  A    between atoms: _571  and  _572
REMARK  243  A    between atoms: _578  and  _580
REMARK  244  A    between atoms: _580  and  _581
REMARK  245  A    between atoms: _580  and  _583
REMARK  246  A    between atoms: _583  and  _584
REMARK  247  A    between atoms: _589  and  _590
REMARK  248  A    between atoms: _592  and  _594
REMARK  249  A    between atoms: _594  and  _595
REMARK  250  A    between atoms: _594  and  _597
REMARK  251  A    between atoms: _597  and  _598
REMARK  252  A    between atoms: _598  and  _599
REMARK  253  A    between atoms: _601  and  _603
REMARK  254  A    between atoms: _603  and  _604
REMARK  255  A    between atoms: _603  and  _606
REMARK  256  A    between atoms: _606  and  _607
REMARK  257  A    between atoms: _610  and  _612
REMARK  258  A    between atoms: _612  and  _613
REMARK  259  A    between atoms: _612  and  _615
REMARK  260  A    between atoms: _615  and  _616
REMARK                            x       y       z     vdW  Elec       q    Type
REMARK                         _______ _______ _______ _____ _____    ______ ____
ROOT
ATOM      1  O   HOH     1      -4.351   8.627  46.810  0.00  0.00    +0.000 OA
ENDROOT
TORSDOF 0
REMARK  Name = ../refined-set-2016/3dnt/3dnt_pocket.pdb
REMARK  260 active torsions:
REMARK  status: ('A' for Active; 'I' for Inactive)
REMARK    1  A    between atoms: _1  and  _3
REMARK    2  A    between atoms: _3  and  _4
REMARK    3  A    between atoms: _3  and  _6
REMARK    4  A    between atoms: _6  and  _7
REMARK    5  A    between atoms: _12  and  _14
REMARK    6  A    between atoms: _14  and  _15
REMARK    7  A    between atoms: _14  and  _17
REMARK    8  A    between atoms: _17  and  _18
REMARK    9  A    between atoms: _21  and  _23
REMARK   10  A    between atoms: _23  and  _24
REMARK   11  A    between atoms: _23  and  _26
REMARK   12  A    between atoms: _26  and  _27
REMARK   13  A    between atoms: _31  and  _32
REMARK   14  A    between atoms: _37  and  _39
REMARK   15  A    between atoms: _39  and  _40
REMARK   16  A    between atoms: _39  and  _42
REMARK   17  A    between atoms: _42  and  _43
REMARK   18  A    between atoms: _46  and  _48
REMARK   19  A    between atoms: _48  and  _49
REMARK   20  A    between atoms: _48  and  _51
REMARK   21  A    between atoms: _51  and  _52
REMARK   22  A    between atoms: _54  and  _56
REMARK   23  A    between atoms: _56  and  _57
REMARK   24  A    between atoms: _56  and  _59
REMARK   25  A    between atoms: _59  and  _60
REMARK   26  A    between atoms: _62  and  _64
REMARK   27  A    between atoms: _64  and  _65
REMARK   28  A    between atoms: _64  and  _67
REMARK   29  A    between atoms: _70  and  _72
REMARK   30  A    between atoms: _72  and  _73
REMARK   31  A    between atoms: _75  and  _77
REMARK   32  A    between atoms: _77  and  _78
REMARK   33  A    between atoms: _77  and  _80
REMARK   34  A    between atoms: _80  and  _81
REMARK   35  A    between atoms: _83  and  _85
REMARK   36  A    between atoms: _85  and  _86
REMARK   37  A    between atoms: _85  and  _88
REMARK   38  A    between atoms: _91  and  _93
REMARK   39  A    between atoms: _93  and  _94
REMARK   40  A    between atoms: _97  and  _99
REMARK   41  A    between atoms: _99  and  _100
REMARK   42  A    between atoms: _102  and  _104
REMARK   43  A    between atoms: _104  and  _105
REMARK   44  A    between atoms: _108  and  _110
REMARK   45  A    between atoms: _110  and  _111
REMARK   46  A    between atoms: _110  and  _113
REMARK   47  A    between atoms: _113  and  _114
REMARK   48  A    between atoms: _114  and  _115
REMARK   49  A    between atoms: _120  and  _122
REMARK   50  A    between atoms: _122  and  _123
REMARK   51  A    between atoms: _122  and  _125
REMARK   52  A    between atoms: _125  and  _126
REMARK   53  A    between atoms: _126  and  _127
REMARK   54  A    between atoms: _130  and  _132
REMARK   55  A    between atoms: _132  and  _133
REMARK   56  A    between atoms: _132  and  _135
REMARK   57  A    between atoms: _135  and  _136
REMARK   58  A    between atoms: _136  and  _137
REMARK   59  A    between atoms: _137  and  _138
REMARK   60  A    between atoms: _138  and  _139
REMARK   61  A    between atoms: _143  and  _145
REMARK   62  A    between atoms: _145  and  _146
REMARK   63  A    between atoms: _145  and  _148
REMARK   64  A    between atoms: _148  and  _149
REMARK   65  A    between atoms: _152  and  _154
REMARK   66  A    between atoms: _154  and  _155
REMARK   67  A    between atoms: _154  and  _157
REMARK   68  A    between atoms: _157  and  _158
REMARK   69  A    between atoms: _163  and  _165
REMARK   70  A    between atoms: _165  and  _166
REMARK   71  A    between atoms: _165  and  _168
REMARK   72  A    between atoms: _168  and  _169
REMARK   73  A    between atoms: _172  and  _174
REMARK   74  A    between atoms: _174  and  _175
REMARK   75  A    between atoms: _174  and  _177
REMARK   76  A    between atoms: _177  and  _178
REMARK   77  A    between atoms: _181  and  _183
REMARK   78  A    between atoms: _183  and  _184
REMARK   79  A    between atoms: _183  and  _186
REMARK   80  A    between atoms: _186  and  _187
REMARK   81  A    between atoms: _187  and  _188
REMARK   82  A    between atoms: _188  and  _189
REMARK   83  A    between atoms: _189  and  _190
REMARK   84  A    between atoms: _194  and  _196
REMARK   85  A    between atoms: _196  and  _197
REMARK   86  A    between atoms: _196  and  _199
REMARK   87  A    between atoms: _199  and  _200
REMARK   88  A    between atoms: _203  and  _205
REMARK   89  A    between atoms: _205  and  _206
REMARK   90  A    between atoms: _205  and  _208
REMARK   91  A    between atoms: _208  and  _209
REMARK   92  A    between atoms: _212  and  _214
REMARK   93  A    between atoms: _214  and  _215
REMARK   94  A    between atoms: _214  and  _217
REMARK   95  A    between atoms: _217  and  _218
REMARK   96  A    between atoms: _220  and  _222
REMARK   97  A    between atoms: _222  and  _223
REMARK   98  A    between atoms: _222  and  _225
REMARK   99  A    between atoms: _225  and  _226
REMARK  100  A    between atoms: _226  and  _227
REMARK  101  A    between atoms: _230  and  _232
REMARK  102  A    between atoms: _232  and  _233
REMARK  103  A    between atoms: _232  and  _235
REMARK  104  A    between atoms: _235  and  _236
REMARK  105  A    between atoms: _239  and  _241
REMARK  106  A    between atoms: _241  and  _242
REMARK  107  A    between atoms: _241  and  _244
REMARK  108  A    between atoms: _248  and  _249
REMARK  109  A    between atoms: _254  and  _256
REMARK  110  A    between atoms: _256  and  _257
REMARK  111  A    between atoms: _256  and  _259
REMARK  112  A    between atoms: _259  and  _260
REMARK  113  A    between atoms: _263  and  _265
REMARK  114  A    between atoms: _265  and  _266
REMARK  115  A    between atoms: _269  and  _271
REMARK  116  A    between atoms: _271  and  _272
REMARK  117  A    between atoms: _271  and  _274
REMARK  118  A    between atoms: _274  and  _275
REMARK  119  A    between atoms: _278  and  _280
REMARK  120  A    between atoms: _280  and  _281
REMARK  121  A    between atoms: _284  and  _286
REMARK  122  A    between atoms: _286  and  _287
REMARK  123  A    between atoms: _286  and  _289
REMARK  124  A    between atoms: _292  and  _294
REMARK  125  A    between atoms: _294  and  _295
REMARK  126  A    between atoms: _294  and  _297
REMARK  127  A    between atoms: _297  and  _298
REMARK  128  A    between atoms: _298  and  _299
REMARK  129  A    between atoms: _302  and  _304
REMARK  130  A    between atoms: _304  and  _305
REMARK  131  A    between atoms: _304  and  _307
REMARK  132  A    between atoms: _307  and  _308
REMARK  133  A    between atoms: _308  and  _309
REMARK  134  A    between atoms: _309  and  _310
REMARK  135  A    between atoms: _319  and  _321
REMARK  136  A    between atoms: _321  and  _322
REMARK  137  A    between atoms: _321  and  _324
REMARK  138  A    between atoms: _324  and  _325
REMARK  139  A    between atoms: _331  and  _333
REMARK  140  A    between atoms: _333  and  _334
REMARK  141  A    between atoms: _333  and  _336
REMARK  142  A    between atoms: _336  and  _337
REMARK  143  A    between atoms: _340  and  _342
REMARK  144  A    between atoms: _342  and  _343
REMARK  145  A    between atoms: _342  and  _345
REMARK  146  A    between atoms: _345  and  _346
REMARK  147  A    between atoms: _346  and  _347
REMARK  148  A    between atoms: _347  and  _348
REMARK  149  A    between atoms: _357  and  _359
REMARK  150  A    between atoms: _359  and  _360
REMARK  151  A    between atoms: _359  and  _362
REMARK  152  A    between atoms: _362  and  _363
REMARK  153  A    between atoms: _366  and  _368
REMARK  154  A    between atoms: _368  and  _369
REMARK  155  A    between atoms: _368  and  _371
REMARK  156  A    between atoms: _371  and  _372
REMARK  157  A    between atoms: _372  and  _373
REMARK  158  A    between atoms: _378  and  _380
REMARK  159  A    between atoms: _380  and  _381
REMARK  160  A    between atoms: _380  and  _383
REMARK  161  A    between atoms: _383  and  _384
REMARK  162  A    between atoms: _384  and  _385
REMARK  163  A    between atoms: _388  and  _390
REMARK  164  A    between atoms: _390  and  _391
REMARK  165  A    between atoms: _390  and  _393
REMARK  166  A    between atoms: _393  and  _394
REMARK  167  A    between atoms: _397  and  _399
REMARK  168  A    between atoms: _399  and  _400
REMARK  169  A    between atoms: _399  and  _402
REMARK  170  A    between atoms: _402  and  _403
REMARK  171  A    between atoms: _403  and  _404
REMARK  172  A    between atoms: _406  and  _408
REMARK  173  A    between atoms: _408  and  _409
REMARK  174  A    between atoms: _408  and  _411
REMARK  175  A    between atoms: _413  and  _415
REMARK  176  A    between atoms: _415  and  _416
REMARK  177  A    between atoms: _415  and  _418
REMARK  178  A    between atoms: _418  and  _419
REMARK  179  A    between atoms: _419  and  _420
REMARK  180  A    between atoms: _425  and  _427
REMARK  181  A    between atoms: _427  and  _428
REMARK  182  A    between atoms: _427  and  _430
REMARK  183  A    between atoms: _430  and  _431
REMARK  184  A    between atoms: _431  and  _432
REMARK  185  A    between atoms: _432  and  _433
REMARK  186  A    between atoms: _433  and  _434
REMARK  187  A    between atoms: _438  and  _440
REMARK  188  A    between atoms: _440  and  _441
REMARK  189  A    between atoms: _440  and  _443
REMARK  190  A    between atoms: _443  and  _444
REMARK  191  A    between atoms: _449  and  _450
REMARK  192  A    between atoms: _452  and  _454
REMARK  193  A    between atoms: _454  and  _455
REMARK  194  A    between atoms: _454  and  _457
REMARK  195  A    between atoms: _457  and  _458
REMARK  196  A    between atoms: _458  and  _459
REMARK  197  A    between atoms: _464  and  _466
REMARK  198  A    between atoms: _466  and  _467
REMARK  199  A    between atoms: _469  and  _471
REMARK  200  A    between atoms: _471  and  _472
REMARK  201  A    between atoms: _471  and  _474
REMARK  202  A    between atoms: _474  and  _475
REMARK  203  A    between atoms: _480  and  _482
REMARK  204  A    between atoms: _482  and  _483
REMARK  205  A    between atoms: _486  and  _488
REMARK  206  A    between atoms: _488  and  _489
REMARK  207  A    between atoms: _488  and  _491
REMARK  208  A    between atoms: _491  and  _492
REMARK  209  A    between atoms: _492  and  _493
REMARK  210  A    between atoms: _493  and  _494
REMARK  211  A    between atoms: _494  and  _495
REMARK  212  A    between atoms: _499  and  _501
REMARK  213  A    between atoms: _501  and  _502
REMARK  214  A    between atoms: _501  and  _504
REMARK  215  A    between atoms: _504  and  _505
REMARK  216  A    between atoms: _505  and  _506
REMARK  217  A    between atoms: _505  and  _507
REMARK  218  A    between atoms: _506  and  MG_619
REMARK  219  A    between atoms: _510  and  _512
REMARK  220  A    between atoms: _512  and  _513
REMARK  221  A    between atoms: _512  and  _515
REMARK  222  A    between atoms: _515  and  _516
REMARK  223  A    between atoms: _522  and  _524
REMARK  224  A    between atoms: _524  and  _525
REMARK  225  A    between atoms: _524  and  _527
REMARK  226  A    between atoms: _527  and  _528
REMARK  227  A    between atoms: _530  and  _532
REMARK  228  A    between atoms: _532  and  _533
REMARK  229  A    between atoms: _532  and  _535
REMARK  230  A    between atoms: _538  and  _540
REMARK  231  A    between atoms: _540  and  _541
REMARK  232  A    between atoms: _540  and  _543
REMARK  233  A    between atoms: _543  and  _544
REMARK  234  A    between atoms: _550  and  _552
REMARK  235  A    between atoms: _552  and  _553
REMARK  236  A    between atoms: _552  and  _555
REMARK  237  A    between atoms: _555  and  _556
REMARK  238  A    between atoms: _560  and  _561
REMARK  239  A    between atoms: _566  and  _568
REMARK  240  A    between atoms: _568  and  _569
REMARK  241  A    between atoms: _568  and  _571
REMARK  242  A    between atoms: _571  and  _572
REMARK  243  A    between atoms: _578  and  _580
REMARK  244  A    between atoms: _580  and  _581
REMARK  245  A    between atoms: _580  and  _583
REMARK  246  A    between atoms: _583  and  _584
REMARK  247  A    between atoms: _589  and  _590
REMARK  248  A    between atoms: _592  and  _594
REMARK  249  A    between atoms: _594  and  _595
REMARK  250  A    between atoms: _594  and  _597
REMARK  251  A    between atoms: _597  and  _598
REMARK  252  A    between atoms: _598  and  _599
REMARK  253  A    between atoms: _601  and  _603
REMARK  254  A    between atoms: _603  and  _604
REMARK  255  A    between atoms: _603  and  _606
REMARK  256  A    between atoms: _606  and  _607
REMARK  257  A    between atoms: _610  and  _612
REMARK  258  A    between atoms: _612  and  _613
REMARK  259  A    between atoms: _612  and  _615
REMARK  260  A    between atoms: _615  and  _616
REMARK                            x       y       z     vdW  Elec       q    Type
REMARK                         _______ _______ _______ _____ _____    ______ ____
ROOT
ATOM      1  O   HOH     1      -0.106  -1.245  52.120  0.00  0.00    +0.000 OA
ENDROOT
TORSDOF 0
REMARK  Name = ../refined-set-2016/3dnt/3dnt_pocket.pdb
REMARK  260 active torsions:
REMARK  status: ('A' for Active; 'I' for Inactive)
REMARK    1  A    between atoms: _1  and  _3
REMARK    2  A    between atoms: _3  and  _4
REMARK    3  A    between atoms: _3  and  _6
REMARK    4  A    between atoms: _6  and  _7
REMARK    5  A    between atoms: _12  and  _14
REMARK    6  A    between atoms: _14  and  _15
REMARK    7  A    between atoms: _14  and  _17
REMARK    8  A    between atoms: _17  and  _18
REMARK    9  A    between atoms: _21  and  _23
REMARK   10  A    between atoms: _23  and  _24
REMARK   11  A    between atoms: _23  and  _26
REMARK   12  A    between atoms: _26  and  _27
REMARK   13  A    between atoms: _31  and  _32
REMARK   14  A    between atoms: _37  and  _39
REMARK   15  A    between atoms: _39  and  _40
REMARK   16  A    between atoms: _39  and  _42
REMARK   17  A    between atoms: _42  and  _43
REMARK   18  A    between atoms: _46  and  _48
REMARK   19  A    between atoms: _48  and  _49
REMARK   20  A    between atoms: _48  and  _51
REMARK   21  A    between atoms: _51  and  _52
REMARK   22  A    between atoms: _54  and  _56
REMARK   23  A    between atoms: _56  and  _57
REMARK   24  A    between atoms: _56  and  _59
REMARK   25  A    between atoms: _59  and  _60
REMARK   26  A    between atoms: _62  and  _64
REMARK   27  A    between atoms: _64  and  _65
REMARK   28  A    between atoms: _64  and  _67
REMARK   29  A    between atoms: _70  and  _72
REMARK   30  A    between atoms: _72  and  _73
REMARK   31  A    between atoms: _75  and  _77
REMARK   32  A    between atoms: _77  and  _78
REMARK   33  A    between atoms: _77  and  _80
REMARK   34  A    between atoms: _80  and  _81
REMARK   35  A    between atoms: _83  and  _85
REMARK   36  A    between atoms: _85  and  _86
REMARK   37  A    between atoms: _85  and  _88
REMARK   38  A    between atoms: _91  and  _93
REMARK   39  A    between atoms: _93  and  _94
REMARK   40  A    between atoms: _97  and  _99
REMARK   41  A    between atoms: _99  and  _100
REMARK   42  A    between atoms: _102  and  _104
REMARK   43  A    between atoms: _104  and  _105
REMARK   44  A    between atoms: _108  and  _110
REMARK   45  A    between atoms: _110  and  _111
REMARK   46  A    between atoms: _110  and  _113
REMARK   47  A    between atoms: _113  and  _114
REMARK   48  A    between atoms: _114  and  _115
REMARK   49  A    between atoms: _120  and  _122
REMARK   50  A    between atoms: _122  and  _123
REMARK   51  A    between atoms: _122  and  _125
REMARK   52  A    between atoms: _125  and  _126
REMARK   53  A    between atoms: _126  and  _127
REMARK   54  A    between atoms: _130  and  _132
REMARK   55  A    between atoms: _132  and  _133
REMARK   56  A    between atoms: _132  and  _135
REMARK   57  A    between atoms: _135  and  _136
REMARK   58  A    between atoms: _136  and  _137
REMARK   59  A    between atoms: _137  and  _138
REMARK   60  A    between atoms: _138  and  _139
REMARK   61  A    between atoms: _143  and  _145
REMARK   62  A    between atoms: _145  and  _146
REMARK   63  A    between atoms: _145  and  _148
REMARK   64  A    between atoms: _148  and  _149
REMARK   65  A    between atoms: _152  and  _154
REMARK   66  A    between atoms: _154  and  _155
REMARK   67  A    between atoms: _154  and  _157
REMARK   68  A    between atoms: _157  and  _158
REMARK   69  A    between atoms: _163  and  _165
REMARK   70  A    between atoms: _165  and  _166
REMARK   71  A    between atoms: _165  and  _168
REMARK   72  A    between atoms: _168  and  _169
REMARK   73  A    between atoms: _172  and  _174
REMARK   74  A    between atoms: _174  and  _175
REMARK   75  A    between atoms: _174  and  _177
REMARK   76  A    between atoms: _177  and  _178
REMARK   77  A    between atoms: _181  and  _183
REMARK   78  A    between atoms: _183  and  _184
REMARK   79  A    between atoms: _183  and  _186
REMARK   80  A    between atoms: _186  and  _187
REMARK   81  A    between atoms: _187  and  _188
REMARK   82  A    between atoms: _188  and  _189
REMARK   83  A    between atoms: _189  and  _190
REMARK   84  A    between atoms: _194  and  _196
REMARK   85  A    between atoms: _196  and  _197
REMARK   86  A    between atoms: _196  and  _199
REMARK   87  A    between atoms: _199  and  _200
REMARK   88  A    between atoms: _203  and  _205
REMARK   89  A    between atoms: _205  and  _206
REMARK   90  A    between atoms: _205  and  _208
REMARK   91  A    between atoms: _208  and  _209
REMARK   92  A    between atoms: _212  and  _214
REMARK   93  A    between atoms: _214  and  _215
REMARK   94  A    between atoms: _214  and  _217
REMARK   95  A    between atoms: _217  and  _218
REMARK   96  A    between atoms: _220  and  _222
REMARK   97  A    between atoms: _222  and  _223
REMARK   98  A    between atoms: _222  and  _225
REMARK   99  A    between atoms: _225  and  _226
REMARK  100  A    between atoms: _226  and  _227
REMARK  101  A    between atoms: _230  and  _232
REMARK  102  A    between atoms: _232  and  _233
REMARK  103  A    between atoms: _232  and  _235
REMARK  104  A    between atoms: _235  and  _236
REMARK  105  A    between atoms: _239  and  _241
REMARK  106  A    between atoms: _241  and  _242
REMARK  107  A    between atoms: _241  and  _244
REMARK  108  A    between atoms: _248  and  _249
REMARK  109  A    between atoms: _254  and  _256
REMARK  110  A    between atoms: _256  and  _257
REMARK  111  A    between atoms: _256  and  _259
REMARK  112  A    between atoms: _259  and  _260
REMARK  113  A    between atoms: _263  and  _265
REMARK  114  A    between atoms: _265  and  _266
REMARK  115  A    between atoms: _269  and  _271
REMARK  116  A    between atoms: _271  and  _272
REMARK  117  A    between atoms: _271  and  _274
REMARK  118  A    between atoms: _274  and  _275
REMARK  119  A    between atoms: _278  and  _280
REMARK  120  A    between atoms: _280  and  _281
REMARK  121  A    between atoms: _284  and  _286
REMARK  122  A    between atoms: _286  and  _287
REMARK  123  A    between atoms: _286  and  _289
REMARK  124  A    between atoms: _292  and  _294
REMARK  125  A    between atoms: _294  and  _295
REMARK  126  A    between atoms: _294  and  _297
REMARK  127  A    between atoms: _297  and  _298
REMARK  128  A    between atoms: _298  and  _299
REMARK  129  A    between atoms: _302  and  _304
REMARK  130  A    between atoms: _304  and  _305
REMARK  131  A    between atoms: _304  and  _307
REMARK  132  A    between atoms: _307  and  _308
REMARK  133  A    between atoms: _308  and  _309
REMARK  134  A    between atoms: _309  and  _310
REMARK  135  A    between atoms: _319  and  _321
REMARK  136  A    between atoms: _321  and  _322
REMARK  137  A    between atoms: _321  and  _324
REMARK  138  A    between atoms: _324  and  _325
REMARK  139  A    between atoms: _331  and  _333
REMARK  140  A    between atoms: _333  and  _334
REMARK  141  A    between atoms: _333  and  _336
REMARK  142  A    between atoms: _336  and  _337
REMARK  143  A    between atoms: _340  and  _342
REMARK  144  A    between atoms: _342  and  _343
REMARK  145  A    between atoms: _342  and  _345
REMARK  146  A    between atoms: _345  and  _346
REMARK  147  A    between atoms: _346  and  _347
REMARK  148  A    between atoms: _347  and  _348
REMARK  149  A    between atoms: _357  and  _359
REMARK  150  A    between atoms: _359  and  _360
REMARK  151  A    between atoms: _359  and  _362
REMARK  152  A    between atoms: _362  and  _363
REMARK  153  A    between atoms: _366  and  _368
REMARK  154  A    between atoms: _368  and  _369
REMARK  155  A    between atoms: _368  and  _371
REMARK  156  A    between atoms: _371  and  _372
REMARK  157  A    between atoms: _372  and  _373
REMARK  158  A    between atoms: _378  and  _380
REMARK  159  A    between atoms: _380  and  _381
REMARK  160  A    between atoms: _380  and  _383
REMARK  161  A    between atoms: _383  and  _384
REMARK  162  A    between atoms: _384  and  _385
REMARK  163  A    between atoms: _388  and  _390
REMARK  164  A    between atoms: _390  and  _391
REMARK  165  A    between atoms: _390  and  _393
REMARK  166  A    between atoms: _393  and  _394
REMARK  167  A    between atoms: _397  and  _399
REMARK  168  A    between atoms: _399  and  _400
REMARK  169  A    between atoms: _399  and  _402
REMARK  170  A    between atoms: _402  and  _403
REMARK  171  A    between atoms: _403  and  _404
REMARK  172  A    between atoms: _406  and  _408
REMARK  173  A    between atoms: _408  and  _409
REMARK  174  A    between atoms: _408  and  _411
REMARK  175  A    between atoms: _413  and  _415
REMARK  176  A    between atoms: _415  and  _416
REMARK  177  A    between atoms: _415  and  _418
REMARK  178  A    between atoms: _418  and  _419
REMARK  179  A    between atoms: _419  and  _420
REMARK  180  A    between atoms: _425  and  _427
REMARK  181  A    between atoms: _427  and  _428
REMARK  182  A    between atoms: _427  and  _430
REMARK  183  A    between atoms: _430  and  _431
REMARK  184  A    between atoms: _431  and  _432
REMARK  185  A    between atoms: _432  and  _433
REMARK  186  A    between atoms: _433  and  _434
REMARK  187  A    between atoms: _438  and  _440
REMARK  188  A    between atoms: _440  and  _441
REMARK  189  A    between atoms: _440  and  _443
REMARK  190  A    between atoms: _443  and  _444
REMARK  191  A    between atoms: _449  and  _450
REMARK  192  A    between atoms: _452  and  _454
REMARK  193  A    between atoms: _454  and  _455
REMARK  194  A    between atoms: _454  and  _457
REMARK  195  A    between atoms: _457  and  _458
REMARK  196  A    between atoms: _458  and  _459
REMARK  197  A    between atoms: _464  and  _466
REMARK  198  A    between atoms: _466  and  _467
REMARK  199  A    between atoms: _469  and  _471
REMARK  200  A    between atoms: _471  and  _472
REMARK  201  A    between atoms: _471  and  _474
REMARK  202  A    between atoms: _474  and  _475
REMARK  203  A    between atoms: _480  and  _482
REMARK  204  A    between atoms: _482  and  _483
REMARK  205  A    between atoms: _486  and  _488
REMARK  206  A    between atoms: _488  and  _489
REMARK  207  A    between atoms: _488  and  _491
REMARK  208  A    between atoms: _491  and  _492
REMARK  209  A    between atoms: _492  and  _493
REMARK  210  A    between atoms: _493  and  _494
REMARK  211  A    between atoms: _494  and  _495
REMARK  212  A    between atoms: _499  and  _501
REMARK  213  A    between atoms: _501  and  _502
REMARK  214  A    between atoms: _501  and  _504
REMARK  215  A    between atoms: _504  and  _505
REMARK  216  A    between atoms: _505  and  _506
REMARK  217  A    between atoms: _505  and  _507
REMARK  218  A    between atoms: _506  and  MG_619
REMARK  219  A    between atoms: _510  and  _512
REMARK  220  A    between atoms: _512  and  _513
REMARK  221  A    between atoms: _512  and  _515
REMARK  222  A    between atoms: _515  and  _516
REMARK  223  A    between atoms: _522  and  _524
REMARK  224  A    between atoms: _524  and  _525
REMARK  225  A    between atoms: _524  and  _527
REMARK  226  A    between atoms: _527  and  _528
REMARK  227  A    between atoms: _530  and  _532
REMARK  228  A    between atoms: _532  and  _533
REMARK  229  A    between atoms: _532  and  _535
REMARK  230  A    between atoms: _538  and  _540
REMARK  231  A    between atoms: _540  and  _541
REMARK  232  A    between atoms: _540  and  _543
REMARK  233  A    between atoms: _543  and  _544
REMARK  234  A    between atoms: _550  and  _552
REMARK  235  A    between atoms: _552  and  _553
REMARK  236  A    between atoms: _552  and  _555
REMARK  237  A    between atoms: _555  and  _556
REMARK  238  A    between atoms: _560  and  _561
REMARK  239  A    between atoms: _566  and  _568
REMARK  240  A    between atoms: _568  and  _569
REMARK  241  A    between atoms: _568  and  _571
REMARK  242  A    between atoms: _571  and  _572
REMARK  243  A    between atoms: _578  and  _580
REMARK  244  A    between atoms: _580  and  _581
REMARK  245  A    between atoms: _580  and  _583
REMARK  246  A    between atoms: _583  and  _584
REMARK  247  A    between atoms: _589  and  _590
REMARK  248  A    between atoms: _592  and  _594
REMARK  249  A    between atoms: _594  and  _595
REMARK  250  A    between atoms: _594  and  _597
REMARK  251  A    between atoms: _597  and  _598
REMARK  252  A    between atoms: _598  and  _599
REMARK  253  A    between atoms: _601  and  _603
REMARK  254  A    between atoms: _603  and  _604
REMARK  255  A    between atoms: _603  and  _606
REMARK  256  A    between atoms: _606  and  _607
REMARK  257  A    between atoms: _610  and  _612
REMARK  258  A    between atoms: _612  and  _613
REMARK  259  A    between atoms: _612  and  _615
REMARK  260  A    between atoms: _615  and  _616
REMARK                            x       y       z     vdW  Elec       q    Type
REMARK                         _______ _______ _______ _____ _____    ______ ____
ROOT
ATOM      1  O   HOH     1      -0.208   5.140  45.048  0.00  0.00    +0.000 OA
ENDROOT
TORSDOF 0
REMARK  Name = ../refined-set-2016/3dnt/3dnt_pocket.pdb
REMARK  260 active torsions:
REMARK  status: ('A' for Active; 'I' for Inactive)
REMARK    1  A    between atoms: _1  and  _3
REMARK    2  A    between atoms: _3  and  _4
REMARK    3  A    between atoms: _3  and  _6
REMARK    4  A    between atoms: _6  and  _7
REMARK    5  A    between atoms: _12  and  _14
REMARK    6  A    between atoms: _14  and  _15
REMARK    7  A    between atoms: _14  and  _17
REMARK    8  A    between atoms: _17  and  _18
REMARK    9  A    between atoms: _21  and  _23
REMARK   10  A    between atoms: _23  and  _24
REMARK   11  A    between atoms: _23  and  _26
REMARK   12  A    between atoms: _26  and  _27
REMARK   13  A    between atoms: _31  and  _32
REMARK   14  A    between atoms: _37  and  _39
REMARK   15  A    between atoms: _39  and  _40
REMARK   16  A    between atoms: _39  and  _42
REMARK   17  A    between atoms: _42  and  _43
REMARK   18  A    between atoms: _46  and  _48
REMARK   19  A    between atoms: _48  and  _49
REMARK   20  A    between atoms: _48  and  _51
REMARK   21  A    between atoms: _51  and  _52
REMARK   22  A    between atoms: _54  and  _56
REMARK   23  A    between atoms: _56  and  _57
REMARK   24  A    between atoms: _56  and  _59
REMARK   25  A    between atoms: _59  and  _60
REMARK   26  A    between atoms: _62  and  _64
REMARK   27  A    between atoms: _64  and  _65
REMARK   28  A    between atoms: _64  and  _67
REMARK   29  A    between atoms: _70  and  _72
REMARK   30  A    between atoms: _72  and  _73
REMARK   31  A    between atoms: _75  and  _77
REMARK   32  A    between atoms: _77  and  _78
REMARK   33  A    between atoms: _77  and  _80
REMARK   34  A    between atoms: _80  and  _81
REMARK   35  A    between atoms: _83  and  _85
REMARK   36  A    between atoms: _85  and  _86
REMARK   37  A    between atoms: _85  and  _88
REMARK   38  A    between atoms: _91  and  _93
REMARK   39  A    between atoms: _93  and  _94
REMARK   40  A    between atoms: _97  and  _99
REMARK   41  A    between atoms: _99  and  _100
REMARK   42  A    between atoms: _102  and  _104
REMARK   43  A    between atoms: _104  and  _105
REMARK   44  A    between atoms: _108  and  _110
REMARK   45  A    between atoms: _110  and  _111
REMARK   46  A    between atoms: _110  and  _113
REMARK   47  A    between atoms: _113  and  _114
REMARK   48  A    between atoms: _114  and  _115
REMARK   49  A    between atoms: _120  and  _122
REMARK   50  A    between atoms: _122  and  _123
REMARK   51  A    between atoms: _122  and  _125
REMARK   52  A    between atoms: _125  and  _126
REMARK   53  A    between atoms: _126  and  _127
REMARK   54  A    between atoms: _130  and  _132
REMARK   55  A    between atoms: _132  and  _133
REMARK   56  A    between atoms: _132  and  _135
REMARK   57  A    between atoms: _135  and  _136
REMARK   58  A    between atoms: _136  and  _137
REMARK   59  A    between atoms: _137  and  _138
REMARK   60  A    between atoms: _138  and  _139
REMARK   61  A    between atoms: _143  and  _145
REMARK   62  A    between atoms: _145  and  _146
REMARK   63  A    between atoms: _145  and  _148
REMARK   64  A    between atoms: _148  and  _149
REMARK   65  A    between atoms: _152  and  _154
REMARK   66  A    between atoms: _154  and  _155
REMARK   67  A    between atoms: _154  and  _157
REMARK   68  A    between atoms: _157  and  _158
REMARK   69  A    between atoms: _163  and  _165
REMARK   70  A    between atoms: _165  and  _166
REMARK   71  A    between atoms: _165  and  _168
REMARK   72  A    between atoms: _168  and  _169
REMARK   73  A    between atoms: _172  and  _174
REMARK   74  A    between atoms: _174  and  _175
REMARK   75  A    between atoms: _174  and  _177
REMARK   76  A    between atoms: _177  and  _178
REMARK   77  A    between atoms: _181  and  _183
REMARK   78  A    between atoms: _183  and  _184
REMARK   79  A    between atoms: _183  and  _186
REMARK   80  A    between atoms: _186  and  _187
REMARK   81  A    between atoms: _187  and  _188
REMARK   82  A    between atoms: _188  and  _189
REMARK   83  A    between atoms: _189  and  _190
REMARK   84  A    between atoms: _194  and  _196
REMARK   85  A    between atoms: _196  and  _197
REMARK   86  A    between atoms: _196  and  _199
REMARK   87  A    between atoms: _199  and  _200
REMARK   88  A    between atoms: _203  and  _205
REMARK   89  A    between atoms: _205  and  _206
REMARK   90  A    between atoms: _205  and  _208
REMARK   91  A    between atoms: _208  and  _209
REMARK   92  A    between atoms: _212  and  _214
REMARK   93  A    between atoms: _214  and  _215
REMARK   94  A    between atoms: _214  and  _217
REMARK   95  A    between atoms: _217  and  _218
REMARK   96  A    between atoms: _220  and  _222
REMARK   97  A    between atoms: _222  and  _223
REMARK   98  A    between atoms: _222  and  _225
REMARK   99  A    between atoms: _225  and  _226
REMARK  100  A    between atoms: _226  and  _227
REMARK  101  A    between atoms: _230  and  _232
REMARK  102  A    between atoms: _232  and  _233
REMARK  103  A    between atoms: _232  and  _235
REMARK  104  A    between atoms: _235  and  _236
REMARK  105  A    between atoms: _239  and  _241
REMARK  106  A    between atoms: _241  and  _242
REMARK  107  A    between atoms: _241  and  _244
REMARK  108  A    between atoms: _248  and  _249
REMARK  109  A    between atoms: _254  and  _256
REMARK  110  A    between atoms: _256  and  _257
REMARK  111  A    between atoms: _256  and  _259
REMARK  112  A    between atoms: _259  and  _260
REMARK  113  A    between atoms: _263  and  _265
REMARK  114  A    between atoms: _265  and  _266
REMARK  115  A    between atoms: _269  and  _271
REMARK  116  A    between atoms: _271  and  _272
REMARK  117  A    between atoms: _271  and  _274
REMARK  118  A    between atoms: _274  and  _275
REMARK  119  A    between atoms: _278  and  _280
REMARK  120  A    between atoms: _280  and  _281
REMARK  121  A    between atoms: _284  and  _286
REMARK  122  A    between atoms: _286  and  _287
REMARK  123  A    between atoms: _286  and  _289
REMARK  124  A    between atoms: _292  and  _294
REMARK  125  A    between atoms: _294  and  _295
REMARK  126  A    between atoms: _294  and  _297
REMARK  127  A    between atoms: _297  and  _298
REMARK  128  A    between atoms: _298  and  _299
REMARK  129  A    between atoms: _302  and  _304
REMARK  130  A    between atoms: _304  and  _305
REMARK  131  A    between atoms: _304  and  _307
REMARK  132  A    between atoms: _307  and  _308
REMARK  133  A    between atoms: _308  and  _309
REMARK  134  A    between atoms: _309  and  _310
REMARK  135  A    between atoms: _319  and  _321
REMARK  136  A    between atoms: _321  and  _322
REMARK  137  A    between atoms: _321  and  _324
REMARK  138  A    between atoms: _324  and  _325
REMARK  139  A    between atoms: _331  and  _333
REMARK  140  A    between atoms: _333  and  _334
REMARK  141  A    between atoms: _333  and  _336
REMARK  142  A    between atoms: _336  and  _337
REMARK  143  A    between atoms: _340  and  _342
REMARK  144  A    between atoms: _342  and  _343
REMARK  145  A    between atoms: _342  and  _345
REMARK  146  A    between atoms: _345  and  _346
REMARK  147  A    between atoms: _346  and  _347
REMARK  148  A    between atoms: _347  and  _348
REMARK  149  A    between atoms: _357  and  _359
REMARK  150  A    between atoms: _359  and  _360
REMARK  151  A    between atoms: _359  and  _362
REMARK  152  A    between atoms: _362  and  _363
REMARK  153  A    between atoms: _366  and  _368
REMARK  154  A    between atoms: _368  and  _369
REMARK  155  A    between atoms: _368  and  _371
REMARK  156  A    between atoms: _371  and  _372
REMARK  157  A    between atoms: _372  and  _373
REMARK  158  A    between atoms: _378  and  _380
REMARK  159  A    between atoms: _380  and  _381
REMARK  160  A    between atoms: _380  and  _383
REMARK  161  A    between atoms: _383  and  _384
REMARK  162  A    between atoms: _384  and  _385
REMARK  163  A    between atoms: _388  and  _390
REMARK  164  A    between atoms: _390  and  _391
REMARK  165  A    between atoms: _390  and  _393
REMARK  166  A    between atoms: _393  and  _394
REMARK  167  A    between atoms: _397  and  _399
REMARK  168  A    between atoms: _399  and  _400
REMARK  169  A    between atoms: _399  and  _402
REMARK  170  A    between atoms: _402  and  _403
REMARK  171  A    between atoms: _403  and  _404
REMARK  172  A    between atoms: _406  and  _408
REMARK  173  A    between atoms: _408  and  _409
REMARK  174  A    between atoms: _408  and  _411
REMARK  175  A    between atoms: _413  and  _415
REMARK  176  A    between atoms: _415  and  _416
REMARK  177  A    between atoms: _415  and  _418
REMARK  178  A    between atoms: _418  and  _419
REMARK  179  A    between atoms: _419  and  _420
REMARK  180  A    between atoms: _425  and  _427
REMARK  181  A    between atoms: _427  and  _428
REMARK  182  A    between atoms: _427  and  _430
REMARK  183  A    between atoms: _430  and  _431
REMARK  184  A    between atoms: _431  and  _432
REMARK  185  A    between atoms: _432  and  _433
REMARK  186  A    between atoms: _433  and  _434
REMARK  187  A    between atoms: _438  and  _440
REMARK  188  A    between atoms: _440  and  _441
REMARK  189  A    between atoms: _440  and  _443
REMARK  190  A    between atoms: _443  and  _444
REMARK  191  A    between atoms: _449  and  _450
REMARK  192  A    between atoms: _452  and  _454
REMARK  193  A    between atoms: _454  and  _455
REMARK  194  A    between atoms: _454  and  _457
REMARK  195  A    between atoms: _457  and  _458
REMARK  196  A    between atoms: _458  and  _459
REMARK  197  A    between atoms: _464  and  _466
REMARK  198  A    between atoms: _466  and  _467
REMARK  199  A    between atoms: _469  and  _471
REMARK  200  A    between atoms: _471  and  _472
REMARK  201  A    between atoms: _471  and  _474
REMARK  202  A    between atoms: _474  and  _475
REMARK  203  A    between atoms: _480  and  _482
REMARK  204  A    between atoms: _482  and  _483
REMARK  205  A    between atoms: _486  and  _488
REMARK  206  A    between atoms: _488  and  _489
REMARK  207  A    between atoms: _488  and  _491
REMARK  208  A    between atoms: _491  and  _492
REMARK  209  A    between atoms: _492  and  _493
REMARK  210  A    between atoms: _493  and  _494
REMARK  211  A    between atoms: _494  and  _495
REMARK  212  A    between atoms: _499  and  _501
REMARK  213  A    between atoms: _501  and  _502
REMARK  214  A    between atoms: _501  and  _504
REMARK  215  A    between atoms: _504  and  _505
REMARK  216  A    between atoms: _505  and  _506
REMARK  217  A    between atoms: _505  and  _507
REMARK  218  A    between atoms: _506  and  MG_619
REMARK  219  A    between atoms: _510  and  _512
REMARK  220  A    between atoms: _512  and  _513
REMARK  221  A    between atoms: _512  and  _515
REMARK  222  A    between atoms: _515  and  _516
REMARK  223  A    between atoms: _522  and  _524
REMARK  224  A    between atoms: _524  and  _525
REMARK  225  A    between atoms: _524  and  _527
REMARK  226  A    between atoms: _527  and  _528
REMARK  227  A    between atoms: _530  and  _532
REMARK  228  A    between atoms: _532  and  _533
REMARK  229  A    between atoms: _532  and  _535
REMARK  230  A    between atoms: _538  and  _540
REMARK  231  A    between atoms: _540  and  _541
REMARK  232  A    between atoms: _540  and  _543
REMARK  233  A    between atoms: _543  and  _544
REMARK  234  A    between atoms: _550  and  _552
REMARK  235  A    between atoms: _552  and  _553
REMARK  236  A    between atoms: _552  and  _555
REMARK  237  A    between atoms: _555  and  _556
REMARK  238  A    between atoms: _560  and  _561
REMARK  239  A    between atoms: _566  and  _568
REMARK  240  A    between atoms: _568  and  _569
REMARK  241  A    between atoms: _568  and  _571
REMARK  242  A    between atoms: _571  and  _572
REMARK  243  A    between atoms: _578  and  _580
REMARK  244  A    between atoms: _580  and  _581
REMARK  245  A    between atoms: _580  and  _583
REMARK  246  A    between atoms: _583  and  _584
REMARK  247  A    between atoms: _589  and  _590
REMARK  248  A    between atoms: _592  and  _594
REMARK  249  A    between atoms: _594  and  _595
REMARK  250  A    between atoms: _594  and  _597
REMARK  251  A    between atoms: _597  and  _598
REMARK  252  A    between atoms: _598  and  _599
REMARK  253  A    between atoms: _601  and  _603
REMARK  254  A    between atoms: _603  and  _604
REMARK  255  A    between atoms: _603  and  _606
REMARK  256  A    between atoms: _606  and  _607
REMARK  257  A    between atoms: _610  and  _612
REMARK  258  A    between atoms: _612  and  _613
REMARK  259  A    between atoms: _612  and  _615
REMARK  260  A    between atoms: _615  and  _616
REMARK                            x       y       z     vdW  Elec       q    Type
REMARK                         _______ _______ _______ _____ _____    ______ ____
ROOT
ATOM      1  O   HOH     1      -5.149  11.860  58.291  0.00  0.00    +0.000 OA
ENDROOT
TORSDOF 0
REMARK  Name = ../refined-set-2016/3dnt/3dnt_pocket.pdb
REMARK  260 active torsions:
REMARK  status: ('A' for Active; 'I' for Inactive)
REMARK    1  A    between atoms: _1  and  _3
REMARK    2  A    between atoms: _3  and  _4
REMARK    3  A    between atoms: _3  and  _6
REMARK    4  A    between atoms: _6  and  _7
REMARK    5  A    between atoms: _12  and  _14
REMARK    6  A    between atoms: _14  and  _15
REMARK    7  A    between atoms: _14  and  _17
REMARK    8  A    between atoms: _17  and  _18
REMARK    9  A    between atoms: _21  and  _23
REMARK   10  A    between atoms: _23  and  _24
REMARK   11  A    between atoms: _23  and  _26
REMARK   12  A    between atoms: _26  and  _27
REMARK   13  A    between atoms: _31  and  _32
REMARK   14  A    between atoms: _37  and  _39
REMARK   15  A    between atoms: _39  and  _40
REMARK   16  A    between atoms: _39  and  _42
REMARK   17  A    between atoms: _42  and  _43
REMARK   18  A    between atoms: _46  and  _48
REMARK   19  A    between atoms: _48  and  _49
REMARK   20  A    between atoms: _48  and  _51
REMARK   21  A    between atoms: _51  and  _52
REMARK   22  A    between atoms: _54  and  _56
REMARK   23  A    between atoms: _56  and  _57
REMARK   24  A    between atoms: _56  and  _59
REMARK   25  A    between atoms: _59  and  _60
REMARK   26  A    between atoms: _62  and  _64
REMARK   27  A    between atoms: _64  and  _65
REMARK   28  A    between atoms: _64  and  _67
REMARK   29  A    between atoms: _70  and  _72
REMARK   30  A    between atoms: _72  and  _73
REMARK   31  A    between atoms: _75  and  _77
REMARK   32  A    between atoms: _77  and  _78
REMARK   33  A    between atoms: _77  and  _80
REMARK   34  A    between atoms: _80  and  _81
REMARK   35  A    between atoms: _83  and  _85
REMARK   36  A    between atoms: _85  and  _86
REMARK   37  A    between atoms: _85  and  _88
REMARK   38  A    between atoms: _91  and  _93
REMARK   39  A    between atoms: _93  and  _94
REMARK   40  A    between atoms: _97  and  _99
REMARK   41  A    between atoms: _99  and  _100
REMARK   42  A    between atoms: _102  and  _104
REMARK   43  A    between atoms: _104  and  _105
REMARK   44  A    between atoms: _108  and  _110
REMARK   45  A    between atoms: _110  and  _111
REMARK   46  A    between atoms: _110  and  _113
REMARK   47  A    between atoms: _113  and  _114
REMARK   48  A    between atoms: _114  and  _115
REMARK   49  A    between atoms: _120  and  _122
REMARK   50  A    between atoms: _122  and  _123
REMARK   51  A    between atoms: _122  and  _125
REMARK   52  A    between atoms: _125  and  _126
REMARK   53  A    between atoms: _126  and  _127
REMARK   54  A    between atoms: _130  and  _132
REMARK   55  A    between atoms: _132  and  _133
REMARK   56  A    between atoms: _132  and  _135
REMARK   57  A    between atoms: _135  and  _136
REMARK   58  A    between atoms: _136  and  _137
REMARK   59  A    between atoms: _137  and  _138
REMARK   60  A    between atoms: _138  and  _139
REMARK   61  A    between atoms: _143  and  _145
REMARK   62  A    between atoms: _145  and  _146
REMARK   63  A    between atoms: _145  and  _148
REMARK   64  A    between atoms: _148  and  _149
REMARK   65  A    between atoms: _152  and  _154
REMARK   66  A    between atoms: _154  and  _155
REMARK   67  A    between atoms: _154  and  _157
REMARK   68  A    between atoms: _157  and  _158
REMARK   69  A    between atoms: _163  and  _165
REMARK   70  A    between atoms: _165  and  _166
REMARK   71  A    between atoms: _165  and  _168
REMARK   72  A    between atoms: _168  and  _169
REMARK   73  A    between atoms: _172  and  _174
REMARK   74  A    between atoms: _174  and  _175
REMARK   75  A    between atoms: _174  and  _177
REMARK   76  A    between atoms: _177  and  _178
REMARK   77  A    between atoms: _181  and  _183
REMARK   78  A    between atoms: _183  and  _184
REMARK   79  A    between atoms: _183  and  _186
REMARK   80  A    between atoms: _186  and  _187
REMARK   81  A    between atoms: _187  and  _188
REMARK   82  A    between atoms: _188  and  _189
REMARK   83  A    between atoms: _189  and  _190
REMARK   84  A    between atoms: _194  and  _196
REMARK   85  A    between atoms: _196  and  _197
REMARK   86  A    between atoms: _196  and  _199
REMARK   87  A    between atoms: _199  and  _200
REMARK   88  A    between atoms: _203  and  _205
REMARK   89  A    between atoms: _205  and  _206
REMARK   90  A    between atoms: _205  and  _208
REMARK   91  A    between atoms: _208  and  _209
REMARK   92  A    between atoms: _212  and  _214
REMARK   93  A    between atoms: _214  and  _215
REMARK   94  A    between atoms: _214  and  _217
REMARK   95  A    between atoms: _217  and  _218
REMARK   96  A    between atoms: _220  and  _222
REMARK   97  A    between atoms: _222  and  _223
REMARK   98  A    between atoms: _222  and  _225
REMARK   99  A    between atoms: _225  and  _226
REMARK  100  A    between atoms: _226  and  _227
REMARK  101  A    between atoms: _230  and  _232
REMARK  102  A    between atoms: _232  and  _233
REMARK  103  A    between atoms: _232  and  _235
REMARK  104  A    between atoms: _235  and  _236
REMARK  105  A    between atoms: _239  and  _241
REMARK  106  A    between atoms: _241  and  _242
REMARK  107  A    between atoms: _241  and  _244
REMARK  108  A    between atoms: _248  and  _249
REMARK  109  A    between atoms: _254  and  _256
REMARK  110  A    between atoms: _256  and  _257
REMARK  111  A    between atoms: _256  and  _259
REMARK  112  A    between atoms: _259  and  _260
REMARK  113  A    between atoms: _263  and  _265
REMARK  114  A    between atoms: _265  and  _266
REMARK  115  A    between atoms: _269  and  _271
REMARK  116  A    between atoms: _271  and  _272
REMARK  117  A    between atoms: _271  and  _274
REMARK  118  A    between atoms: _274  and  _275
REMARK  119  A    between atoms: _278  and  _280
REMARK  120  A    between atoms: _280  and  _281
REMARK  121  A    between atoms: _284  and  _286
REMARK  122  A    between atoms: _286  and  _287
REMARK  123  A    between atoms: _286  and  _289
REMARK  124  A    between atoms: _292  and  _294
REMARK  125  A    between atoms: _294  and  _295
REMARK  126  A    between atoms: _294  and  _297
REMARK  127  A    between atoms: _297  and  _298
REMARK  128  A    between atoms: _298  and  _299
REMARK  129  A    between atoms: _302  and  _304
REMARK  130  A    between atoms: _304  and  _305
REMARK  131  A    between atoms: _304  and  _307
REMARK  132  A    between atoms: _307  and  _308
REMARK  133  A    between atoms: _308  and  _309
REMARK  134  A    between atoms: _309  and  _310
REMARK  135  A    between atoms: _319  and  _321
REMARK  136  A    between atoms: _321  and  _322
REMARK  137  A    between atoms: _321  and  _324
REMARK  138  A    between atoms: _324  and  _325
REMARK  139  A    between atoms: _331  and  _333
REMARK  140  A    between atoms: _333  and  _334
REMARK  141  A    between atoms: _333  and  _336
REMARK  142  A    between atoms: _336  and  _337
REMARK  143  A    between atoms: _340  and  _342
REMARK  144  A    between atoms: _342  and  _343
REMARK  145  A    between atoms: _342  and  _345
REMARK  146  A    between atoms: _345  and  _346
REMARK  147  A    between atoms: _346  and  _347
REMARK  148  A    between atoms: _347  and  _348
REMARK  149  A    between atoms: _357  and  _359
REMARK  150  A    between atoms: _359  and  _360
REMARK  151  A    between atoms: _359  and  _362
REMARK  152  A    between atoms: _362  and  _363
REMARK  153  A    between atoms: _366  and  _368
REMARK  154  A    between atoms: _368  and  _369
REMARK  155  A    between atoms: _368  and  _371
REMARK  156  A    between atoms: _371  and  _372
REMARK  157  A    between atoms: _372  and  _373
REMARK  158  A    between atoms: _378  and  _380
REMARK  159  A    between atoms: _380  and  _381
REMARK  160  A    between atoms: _380  and  _383
REMARK  161  A    between atoms: _383  and  _384
REMARK  162  A    between atoms: _384  and  _385
REMARK  163  A    between atoms: _388  and  _390
REMARK  164  A    between atoms: _390  and  _391
REMARK  165  A    between atoms: _390  and  _393
REMARK  166  A    between atoms: _393  and  _394
REMARK  167  A    between atoms: _397  and  _399
REMARK  168  A    between atoms: _399  and  _400
REMARK  169  A    between atoms: _399  and  _402
REMARK  170  A    between atoms: _402  and  _403
REMARK  171  A    between atoms: _403  and  _404
REMARK  172  A    between atoms: _406  and  _408
REMARK  173  A    between atoms: _408  and  _409
REMARK  174  A    between atoms: _408  and  _411
REMARK  175  A    between atoms: _413  and  _415
REMARK  176  A    between atoms: _415  and  _416
REMARK  177  A    between atoms: _415  and  _418
REMARK  178  A    between atoms: _418  and  _419
REMARK  179  A    between atoms: _419  and  _420
REMARK  180  A    between atoms: _425  and  _427
REMARK  181  A    between atoms: _427  and  _428
REMARK  182  A    between atoms: _427  and  _430
REMARK  183  A    between atoms: _430  and  _431
REMARK  184  A    between atoms: _431  and  _432
REMARK  185  A    between atoms: _432  and  _433
REMARK  186  A    between atoms: _433  and  _434
REMARK  187  A    between atoms: _438  and  _440
REMARK  188  A    between atoms: _440  and  _441
REMARK  189  A    between atoms: _440  and  _443
REMARK  190  A    between atoms: _443  and  _444
REMARK  191  A    between atoms: _449  and  _450
REMARK  192  A    between atoms: _452  and  _454
REMARK  193  A    between atoms: _454  and  _455
REMARK  194  A    between atoms: _454  and  _457
REMARK  195  A    between atoms: _457  and  _458
REMARK  196  A    between atoms: _458  and  _459
REMARK  197  A    between atoms: _464  and  _466
REMARK  198  A    between atoms: _466  and  _467
REMARK  199  A    between atoms: _469  and  _471
REMARK  200  A    between atoms: _471  and  _472
REMARK  201  A    between atoms: _471  and  _474
REMARK  202  A    between atoms: _474  and  _475
REMARK  203  A    between atoms: _480  and  _482
REMARK  204  A    between atoms: _482  and  _483
REMARK  205  A    between atoms: _486  and  _488
REMARK  206  A    between atoms: _488  and  _489
REMARK  207  A    between atoms: _488  and  _491
REMARK  208  A    between atoms: _491  and  _492
REMARK  209  A    between atoms: _492  and  _493
REMARK  210  A    between atoms: _493  and  _494
REMARK  211  A    between atoms: _494  and  _495
REMARK  212  A    between atoms: _499  and  _501
REMARK  213  A    between atoms: _501  and  _502
REMARK  214  A    between atoms: _501  and  _504
REMARK  215  A    between atoms: _504  and  _505
REMARK  216  A    between atoms: _505  and  _506
REMARK  217  A    between atoms: _505  and  _507
REMARK  218  A    between atoms: _506  and  MG_619
REMARK  219  A    between atoms: _510  and  _512
REMARK  220  A    between atoms: _512  and  _513
REMARK  221  A    between atoms: _512  and  _515
REMARK  222  A    between atoms: _515  and  _516
REMARK  223  A    between atoms: _522  and  _524
REMARK  224  A    between atoms: _524  and  _525
REMARK  225  A    between atoms: _524  and  _527
REMARK  226  A    between atoms: _527  and  _528
REMARK  227  A    between atoms: _530  and  _532
REMARK  228  A    between atoms: _532  and  _533
REMARK  229  A    between atoms: _532  and  _535
REMARK  230  A    between atoms: _538  and  _540
REMARK  231  A    between atoms: _540  and  _541
REMARK  232  A    between atoms: _540  and  _543
REMARK  233  A    between atoms: _543  and  _544
REMARK  234  A    between atoms: _550  and  _552
REMARK  235  A    between atoms: _552  and  _553
REMARK  236  A    between atoms: _552  and  _555
REMARK  237  A    between atoms: _555  and  _556
REMARK  238  A    between atoms: _560  and  _561
REMARK  239  A    between atoms: _566  and  _568
REMARK  240  A    between atoms: _568  and  _569
REMARK  241  A    between atoms: _568  and  _571
REMARK  242  A    between atoms: _571  and  _572
REMARK  243  A    between atoms: _578  and  _580
REMARK  244  A    between atoms: _580  and  _581
REMARK  245  A    between atoms: _580  and  _583
REMARK  246  A    between atoms: _583  and  _584
REMARK  247  A    between atoms: _589  and  _590
REMARK  248  A    between atoms: _592  and  _594
REMARK  249  A    between atoms: _594  and  _595
REMARK  250  A    between atoms: _594  and  _597
REMARK  251  A    between atoms: _597  and  _598
REMARK  252  A    between atoms: _598  and  _599
REMARK  253  A    between atoms: _601  and  _603
REMARK  254  A    between atoms: _603  and  _604
REMARK  255  A    between atoms: _603  and  _606
REMARK  256  A    between atoms: _606  and  _607
REMARK  257  A    between atoms: _610  and  _612
REMARK  258  A    between atoms: _612  and  _613
REMARK  259  A    between atoms: _612  and  _615
REMARK  260  A    between atoms: _615  and  _616
REMARK                            x       y       z     vdW  Elec       q    Type
REMARK                         _______ _______ _______ _____ _____    ______ ____
ROOT
ATOM      1  O   HOH     1     -11.765  15.005  51.730  0.00  0.00    +0.000 OA
ENDROOT
TORSDOF 0
REMARK  Name = ../refined-set-2016/3dnt/3dnt_pocket.pdb
REMARK  260 active torsions:
REMARK  status: ('A' for Active; 'I' for Inactive)
REMARK    1  A    between atoms: _1  and  _3
REMARK    2  A    between atoms: _3  and  _4
REMARK    3  A    between atoms: _3  and  _6
REMARK    4  A    between atoms: _6  and  _7
REMARK    5  A    between atoms: _12  and  _14
REMARK    6  A    between atoms: _14  and  _15
REMARK    7  A    between atoms: _14  and  _17
REMARK    8  A    between atoms: _17  and  _18
REMARK    9  A    between atoms: _21  and  _23
REMARK   10  A    between atoms: _23  and  _24
REMARK   11  A    between atoms: _23  and  _26
REMARK   12  A    between atoms: _26  and  _27
REMARK   13  A    between atoms: _31  and  _32
REMARK   14  A    between atoms: _37  and  _39
REMARK   15  A    between atoms: _39  and  _40
REMARK   16  A    between atoms: _39  and  _42
REMARK   17  A    between atoms: _42  and  _43
REMARK   18  A    between atoms: _46  and  _48
REMARK   19  A    between atoms: _48  and  _49
REMARK   20  A    between atoms: _48  and  _51
REMARK   21  A    between atoms: _51  and  _52
REMARK   22  A    between atoms: _54  and  _56
REMARK   23  A    between atoms: _56  and  _57
REMARK   24  A    between atoms: _56  and  _59
REMARK   25  A    between atoms: _59  and  _60
REMARK   26  A    between atoms: _62  and  _64
REMARK   27  A    between atoms: _64  and  _65
REMARK   28  A    between atoms: _64  and  _67
REMARK   29  A    between atoms: _70  and  _72
REMARK   30  A    between atoms: _72  and  _73
REMARK   31  A    between atoms: _75  and  _77
REMARK   32  A    between atoms: _77  and  _78
REMARK   33  A    between atoms: _77  and  _80
REMARK   34  A    between atoms: _80  and  _81
REMARK   35  A    between atoms: _83  and  _85
REMARK   36  A    between atoms: _85  and  _86
REMARK   37  A    between atoms: _85  and  _88
REMARK   38  A    between atoms: _91  and  _93
REMARK   39  A    between atoms: _93  and  _94
REMARK   40  A    between atoms: _97  and  _99
REMARK   41  A    between atoms: _99  and  _100
REMARK   42  A    between atoms: _102  and  _104
REMARK   43  A    between atoms: _104  and  _105
REMARK   44  A    between atoms: _108  and  _110
REMARK   45  A    between atoms: _110  and  _111
REMARK   46  A    between atoms: _110  and  _113
REMARK   47  A    between atoms: _113  and  _114
REMARK   48  A    between atoms: _114  and  _115
REMARK   49  A    between atoms: _120  and  _122
REMARK   50  A    between atoms: _122  and  _123
REMARK   51  A    between atoms: _122  and  _125
REMARK   52  A    between atoms: _125  and  _126
REMARK   53  A    between atoms: _126  and  _127
REMARK   54  A    between atoms: _130  and  _132
REMARK   55  A    between atoms: _132  and  _133
REMARK   56  A    between atoms: _132  and  _135
REMARK   57  A    between atoms: _135  and  _136
REMARK   58  A    between atoms: _136  and  _137
REMARK   59  A    between atoms: _137  and  _138
REMARK   60  A    between atoms: _138  and  _139
REMARK   61  A    between atoms: _143  and  _145
REMARK   62  A    between atoms: _145  and  _146
REMARK   63  A    between atoms: _145  and  _148
REMARK   64  A    between atoms: _148  and  _149
REMARK   65  A    between atoms: _152  and  _154
REMARK   66  A    between atoms: _154  and  _155
REMARK   67  A    between atoms: _154  and  _157
REMARK   68  A    between atoms: _157  and  _158
REMARK   69  A    between atoms: _163  and  _165
REMARK   70  A    between atoms: _165  and  _166
REMARK   71  A    between atoms: _165  and  _168
REMARK   72  A    between atoms: _168  and  _169
REMARK   73  A    between atoms: _172  and  _174
REMARK   74  A    between atoms: _174  and  _175
REMARK   75  A    between atoms: _174  and  _177
REMARK   76  A    between atoms: _177  and  _178
REMARK   77  A    between atoms: _181  and  _183
REMARK   78  A    between atoms: _183  and  _184
REMARK   79  A    between atoms: _183  and  _186
REMARK   80  A    between atoms: _186  and  _187
REMARK   81  A    between atoms: _187  and  _188
REMARK   82  A    between atoms: _188  and  _189
REMARK   83  A    between atoms: _189  and  _190
REMARK   84  A    between atoms: _194  and  _196
REMARK   85  A    between atoms: _196  and  _197
REMARK   86  A    between atoms: _196  and  _199
REMARK   87  A    between atoms: _199  and  _200
REMARK   88  A    between atoms: _203  and  _205
REMARK   89  A    between atoms: _205  and  _206
REMARK   90  A    between atoms: _205  and  _208
REMARK   91  A    between atoms: _208  and  _209
REMARK   92  A    between atoms: _212  and  _214
REMARK   93  A    between atoms: _214  and  _215
REMARK   94  A    between atoms: _214  and  _217
REMARK   95  A    between atoms: _217  and  _218
REMARK   96  A    between atoms: _220  and  _222
REMARK   97  A    between atoms: _222  and  _223
REMARK   98  A    between atoms: _222  and  _225
REMARK   99  A    between atoms: _225  and  _226
REMARK  100  A    between atoms: _226  and  _227
REMARK  101  A    between atoms: _230  and  _232
REMARK  102  A    between atoms: _232  and  _233
REMARK  103  A    between atoms: _232  and  _235
REMARK  104  A    between atoms: _235  and  _236
REMARK  105  A    between atoms: _239  and  _241
REMARK  106  A    between atoms: _241  and  _242
REMARK  107  A    between atoms: _241  and  _244
REMARK  108  A    between atoms: _248  and  _249
REMARK  109  A    between atoms: _254  and  _256
REMARK  110  A    between atoms: _256  and  _257
REMARK  111  A    between atoms: _256  and  _259
REMARK  112  A    between atoms: _259  and  _260
REMARK  113  A    between atoms: _263  and  _265
REMARK  114  A    between atoms: _265  and  _266
REMARK  115  A    between atoms: _269  and  _271
REMARK  116  A    between atoms: _271  and  _272
REMARK  117  A    between atoms: _271  and  _274
REMARK  118  A    between atoms: _274  and  _275
REMARK  119  A    between atoms: _278  and  _280
REMARK  120  A    between atoms: _280  and  _281
REMARK  121  A    between atoms: _284  and  _286
REMARK  122  A    between atoms: _286  and  _287
REMARK  123  A    between atoms: _286  and  _289
REMARK  124  A    between atoms: _292  and  _294
REMARK  125  A    between atoms: _294  and  _295
REMARK  126  A    between atoms: _294  and  _297
REMARK  127  A    between atoms: _297  and  _298
REMARK  128  A    between atoms: _298  and  _299
REMARK  129  A    between atoms: _302  and  _304
REMARK  130  A    between atoms: _304  and  _305
REMARK  131  A    between atoms: _304  and  _307
REMARK  132  A    between atoms: _307  and  _308
REMARK  133  A    between atoms: _308  and  _309
REMARK  134  A    between atoms: _309  and  _310
REMARK  135  A    between atoms: _319  and  _321
REMARK  136  A    between atoms: _321  and  _322
REMARK  137  A    between atoms: _321  and  _324
REMARK  138  A    between atoms: _324  and  _325
REMARK  139  A    between atoms: _331  and  _333
REMARK  140  A    between atoms: _333  and  _334
REMARK  141  A    between atoms: _333  and  _336
REMARK  142  A    between atoms: _336  and  _337
REMARK  143  A    between atoms: _340  and  _342
REMARK  144  A    between atoms: _342  and  _343
REMARK  145  A    between atoms: _342  and  _345
REMARK  146  A    between atoms: _345  and  _346
REMARK  147  A    between atoms: _346  and  _347
REMARK  148  A    between atoms: _347  and  _348
REMARK  149  A    between atoms: _357  and  _359
REMARK  150  A    between atoms: _359  and  _360
REMARK  151  A    between atoms: _359  and  _362
REMARK  152  A    between atoms: _362  and  _363
REMARK  153  A    between atoms: _366  and  _368
REMARK  154  A    between atoms: _368  and  _369
REMARK  155  A    between atoms: _368  and  _371
REMARK  156  A    between atoms: _371  and  _372
REMARK  157  A    between atoms: _372  and  _373
REMARK  158  A    between atoms: _378  and  _380
REMARK  159  A    between atoms: _380  and  _381
REMARK  160  A    between atoms: _380  and  _383
REMARK  161  A    between atoms: _383  and  _384
REMARK  162  A    between atoms: _384  and  _385
REMARK  163  A    between atoms: _388  and  _390
REMARK  164  A    between atoms: _390  and  _391
REMARK  165  A    between atoms: _390  and  _393
REMARK  166  A    between atoms: _393  and  _394
REMARK  167  A    between atoms: _397  and  _399
REMARK  168  A    between atoms: _399  and  _400
REMARK  169  A    between atoms: _399  and  _402
REMARK  170  A    between atoms: _402  and  _403
REMARK  171  A    between atoms: _403  and  _404
REMARK  172  A    between atoms: _406  and  _408
REMARK  173  A    between atoms: _408  and  _409
REMARK  174  A    between atoms: _408  and  _411
REMARK  175  A    between atoms: _413  and  _415
REMARK  176  A    between atoms: _415  and  _416
REMARK  177  A    between atoms: _415  and  _418
REMARK  178  A    between atoms: _418  and  _419
REMARK  179  A    between atoms: _419  and  _420
REMARK  180  A    between atoms: _425  and  _427
REMARK  181  A    between atoms: _427  and  _428
REMARK  182  A    between atoms: _427  and  _430
REMARK  183  A    between atoms: _430  and  _431
REMARK  184  A    between atoms: _431  and  _432
REMARK  185  A    between atoms: _432  and  _433
REMARK  186  A    between atoms: _433  and  _434
REMARK  187  A    between atoms: _438  and  _440
REMARK  188  A    between atoms: _440  and  _441
REMARK  189  A    between atoms: _440  and  _443
REMARK  190  A    between atoms: _443  and  _444
REMARK  191  A    between atoms: _449  and  _450
REMARK  192  A    between atoms: _452  and  _454
REMARK  193  A    between atoms: _454  and  _455
REMARK  194  A    between atoms: _454  and  _457
REMARK  195  A    between atoms: _457  and  _458
REMARK  196  A    between atoms: _458  and  _459
REMARK  197  A    between atoms: _464  and  _466
REMARK  198  A    between atoms: _466  and  _467
REMARK  199  A    between atoms: _469  and  _471
REMARK  200  A    between atoms: _471  and  _472
REMARK  201  A    between atoms: _471  and  _474
REMARK  202  A    between atoms: _474  and  _475
REMARK  203  A    between atoms: _480  and  _482
REMARK  204  A    between atoms: _482  and  _483
REMARK  205  A    between atoms: _486  and  _488
REMARK  206  A    between atoms: _488  and  _489
REMARK  207  A    between atoms: _488  and  _491
REMARK  208  A    between atoms: _491  and  _492
REMARK  209  A    between atoms: _492  and  _493
REMARK  210  A    between atoms: _493  and  _494
REMARK  211  A    between atoms: _494  and  _495
REMARK  212  A    between atoms: _499  and  _501
REMARK  213  A    between atoms: _501  and  _502
REMARK  214  A    between atoms: _501  and  _504
REMARK  215  A    between atoms: _504  and  _505
REMARK  216  A    between atoms: _505  and  _506
REMARK  217  A    between atoms: _505  and  _507
REMARK  218  A    between atoms: _506  and  MG_619
REMARK  219  A    between atoms: _510  and  _512
REMARK  220  A    between atoms: _512  and  _513
REMARK  221  A    between atoms: _512  and  _515
REMARK  222  A    between atoms: _515  and  _516
REMARK  223  A    between atoms: _522  and  _524
REMARK  224  A    between atoms: _524  and  _525
REMARK  225  A    between atoms: _524  and  _527
REMARK  226  A    between atoms: _527  and  _528
REMARK  227  A    between atoms: _530  and  _532
REMARK  228  A    between atoms: _532  and  _533
REMARK  229  A    between atoms: _532  and  _535
REMARK  230  A    between atoms: _538  and  _540
REMARK  231  A    between atoms: _540  and  _541
REMARK  232  A    between atoms: _540  and  _543
REMARK  233  A    between atoms: _543  and  _544
REMARK  234  A    between atoms: _550  and  _552
REMARK  235  A    between atoms: _552  and  _553
REMARK  236  A    between atoms: _552  and  _555
REMARK  237  A    between atoms: _555  and  _556
REMARK  238  A    between atoms: _560  and  _561
REMARK  239  A    between atoms: _566  and  _568
REMARK  240  A    between atoms: _568  and  _569
REMARK  241  A    between atoms: _568  and  _571
REMARK  242  A    between atoms: _571  and  _572
REMARK  243  A    between atoms: _578  and  _580
REMARK  244  A    between atoms: _580  and  _581
REMARK  245  A    between atoms: _580  and  _583
REMARK  246  A    between atoms: _583  and  _584
REMARK  247  A    between atoms: _589  and  _590
REMARK  248  A    between atoms: _592  and  _594
REMARK  249  A    between atoms: _594  and  _595
REMARK  250  A    between atoms: _594  and  _597
REMARK  251  A    between atoms: _597  and  _598
REMARK  252  A    between atoms: _598  and  _599
REMARK  253  A    between atoms: _601  and  _603
REMARK  254  A    between atoms: _603  and  _604
REMARK  255  A    between atoms: _603  and  _606
REMARK  256  A    between atoms: _606  and  _607
REMARK  257  A    between atoms: _610  and  _612
REMARK  258  A    between atoms: _612  and  _613
REMARK  259  A    between atoms: _612  and  _615
REMARK  260  A    between atoms: _615  and  _616
REMARK                            x       y       z     vdW  Elec       q    Type
REMARK                         _______ _______ _______ _____ _____    ______ ____
ROOT
ATOM      1  O   HOH     1      -9.224  14.112  51.950  0.00  0.00    +0.000 OA
ENDROOT
TORSDOF 0
REMARK  Name = ../refined-set-2016/3dnt/3dnt_pocket.pdb
REMARK  260 active torsions:
REMARK  status: ('A' for Active; 'I' for Inactive)
REMARK    1  A    between atoms: _1  and  _3
REMARK    2  A    between atoms: _3  and  _4
REMARK    3  A    between atoms: _3  and  _6
REMARK    4  A    between atoms: _6  and  _7
REMARK    5  A    between atoms: _12  and  _14
REMARK    6  A    between atoms: _14  and  _15
REMARK    7  A    between atoms: _14  and  _17
REMARK    8  A    between atoms: _17  and  _18
REMARK    9  A    between atoms: _21  and  _23
REMARK   10  A    between atoms: _23  and  _24
REMARK   11  A    between atoms: _23  and  _26
REMARK   12  A    between atoms: _26  and  _27
REMARK   13  A    between atoms: _31  and  _32
REMARK   14  A    between atoms: _37  and  _39
REMARK   15  A    between atoms: _39  and  _40
REMARK   16  A    between atoms: _39  and  _42
REMARK   17  A    between atoms: _42  and  _43
REMARK   18  A    between atoms: _46  and  _48
REMARK   19  A    between atoms: _48  and  _49
REMARK   20  A    between atoms: _48  and  _51
REMARK   21  A    between atoms: _51  and  _52
REMARK   22  A    between atoms: _54  and  _56
REMARK   23  A    between atoms: _56  and  _57
REMARK   24  A    between atoms: _56  and  _59
REMARK   25  A    between atoms: _59  and  _60
REMARK   26  A    between atoms: _62  and  _64
REMARK   27  A    between atoms: _64  and  _65
REMARK   28  A    between atoms: _64  and  _67
REMARK   29  A    between atoms: _70  and  _72
REMARK   30  A    between atoms: _72  and  _73
REMARK   31  A    between atoms: _75  and  _77
REMARK   32  A    between atoms: _77  and  _78
REMARK   33  A    between atoms: _77  and  _80
REMARK   34  A    between atoms: _80  and  _81
REMARK   35  A    between atoms: _83  and  _85
REMARK   36  A    between atoms: _85  and  _86
REMARK   37  A    between atoms: _85  and  _88
REMARK   38  A    between atoms: _91  and  _93
REMARK   39  A    between atoms: _93  and  _94
REMARK   40  A    between atoms: _97  and  _99
REMARK   41  A    between atoms: _99  and  _100
REMARK   42  A    between atoms: _102  and  _104
REMARK   43  A    between atoms: _104  and  _105
REMARK   44  A    between atoms: _108  and  _110
REMARK   45  A    between atoms: _110  and  _111
REMARK   46  A    between atoms: _110  and  _113
REMARK   47  A    between atoms: _113  and  _114
REMARK   48  A    between atoms: _114  and  _115
REMARK   49  A    between atoms: _120  and  _122
REMARK   50  A    between atoms: _122  and  _123
REMARK   51  A    between atoms: _122  and  _125
REMARK   52  A    between atoms: _125  and  _126
REMARK   53  A    between atoms: _126  and  _127
REMARK   54  A    between atoms: _130  and  _132
REMARK   55  A    between atoms: _132  and  _133
REMARK   56  A    between atoms: _132  and  _135
REMARK   57  A    between atoms: _135  and  _136
REMARK   58  A    between atoms: _136  and  _137
REMARK   59  A    between atoms: _137  and  _138
REMARK   60  A    between atoms: _138  and  _139
REMARK   61  A    between atoms: _143  and  _145
REMARK   62  A    between atoms: _145  and  _146
REMARK   63  A    between atoms: _145  and  _148
REMARK   64  A    between atoms: _148  and  _149
REMARK   65  A    between atoms: _152  and  _154
REMARK   66  A    between atoms: _154  and  _155
REMARK   67  A    between atoms: _154  and  _157
REMARK   68  A    between atoms: _157  and  _158
REMARK   69  A    between atoms: _163  and  _165
REMARK   70  A    between atoms: _165  and  _166
REMARK   71  A    between atoms: _165  and  _168
REMARK   72  A    between atoms: _168  and  _169
REMARK   73  A    between atoms: _172  and  _174
REMARK   74  A    between atoms: _174  and  _175
REMARK   75  A    between atoms: _174  and  _177
REMARK   76  A    between atoms: _177  and  _178
REMARK   77  A    between atoms: _181  and  _183
REMARK   78  A    between atoms: _183  and  _184
REMARK   79  A    between atoms: _183  and  _186
REMARK   80  A    between atoms: _186  and  _187
REMARK   81  A    between atoms: _187  and  _188
REMARK   82  A    between atoms: _188  and  _189
REMARK   83  A    between atoms: _189  and  _190
REMARK   84  A    between atoms: _194  and  _196
REMARK   85  A    between atoms: _196  and  _197
REMARK   86  A    between atoms: _196  and  _199
REMARK   87  A    between atoms: _199  and  _200
REMARK   88  A    between atoms: _203  and  _205
REMARK   89  A    between atoms: _205  and  _206
REMARK   90  A    between atoms: _205  and  _208
REMARK   91  A    between atoms: _208  and  _209
REMARK   92  A    between atoms: _212  and  _214
REMARK   93  A    between atoms: _214  and  _215
REMARK   94  A    between atoms: _214  and  _217
REMARK   95  A    between atoms: _217  and  _218
REMARK   96  A    between atoms: _220  and  _222
REMARK   97  A    between atoms: _222  and  _223
REMARK   98  A    between atoms: _222  and  _225
REMARK   99  A    between atoms: _225  and  _226
REMARK  100  A    between atoms: _226  and  _227
REMARK  101  A    between atoms: _230  and  _232
REMARK  102  A    between atoms: _232  and  _233
REMARK  103  A    between atoms: _232  and  _235
REMARK  104  A    between atoms: _235  and  _236
REMARK  105  A    between atoms: _239  and  _241
REMARK  106  A    between atoms: _241  and  _242
REMARK  107  A    between atoms: _241  and  _244
REMARK  108  A    between atoms: _248  and  _249
REMARK  109  A    between atoms: _254  and  _256
REMARK  110  A    between atoms: _256  and  _257
REMARK  111  A    between atoms: _256  and  _259
REMARK  112  A    between atoms: _259  and  _260
REMARK  113  A    between atoms: _263  and  _265
REMARK  114  A    between atoms: _265  and  _266
REMARK  115  A    between atoms: _269  and  _271
REMARK  116  A    between atoms: _271  and  _272
REMARK  117  A    between atoms: _271  and  _274
REMARK  118  A    between atoms: _274  and  _275
REMARK  119  A    between atoms: _278  and  _280
REMARK  120  A    between atoms: _280  and  _281
REMARK  121  A    between atoms: _284  and  _286
REMARK  122  A    between atoms: _286  and  _287
REMARK  123  A    between atoms: _286  and  _289
REMARK  124  A    between atoms: _292  and  _294
REMARK  125  A    between atoms: _294  and  _295
REMARK  126  A    between atoms: _294  and  _297
REMARK  127  A    between atoms: _297  and  _298
REMARK  128  A    between atoms: _298  and  _299
REMARK  129  A    between atoms: _302  and  _304
REMARK  130  A    between atoms: _304  and  _305
REMARK  131  A    between atoms: _304  and  _307
REMARK  132  A    between atoms: _307  and  _308
REMARK  133  A    between atoms: _308  and  _309
REMARK  134  A    between atoms: _309  and  _310
REMARK  135  A    between atoms: _319  and  _321
REMARK  136  A    between atoms: _321  and  _322
REMARK  137  A    between atoms: _321  and  _324
REMARK  138  A    between atoms: _324  and  _325
REMARK  139  A    between atoms: _331  and  _333
REMARK  140  A    between atoms: _333  and  _334
REMARK  141  A    between atoms: _333  and  _336
REMARK  142  A    between atoms: _336  and  _337
REMARK  143  A    between atoms: _340  and  _342
REMARK  144  A    between atoms: _342  and  _343
REMARK  145  A    between atoms: _342  and  _345
REMARK  146  A    between atoms: _345  and  _346
REMARK  147  A    between atoms: _346  and  _347
REMARK  148  A    between atoms: _347  and  _348
REMARK  149  A    between atoms: _357  and  _359
REMARK  150  A    between atoms: _359  and  _360
REMARK  151  A    between atoms: _359  and  _362
REMARK  152  A    between atoms: _362  and  _363
REMARK  153  A    between atoms: _366  and  _368
REMARK  154  A    between atoms: _368  and  _369
REMARK  155  A    between atoms: _368  and  _371
REMARK  156  A    between atoms: _371  and  _372
REMARK  157  A    between atoms: _372  and  _373
REMARK  158  A    between atoms: _378  and  _380
REMARK  159  A    between atoms: _380  and  _381
REMARK  160  A    between atoms: _380  and  _383
REMARK  161  A    between atoms: _383  and  _384
REMARK  162  A    between atoms: _384  and  _385
REMARK  163  A    between atoms: _388  and  _390
REMARK  164  A    between atoms: _390  and  _391
REMARK  165  A    between atoms: _390  and  _393
REMARK  166  A    between atoms: _393  and  _394
REMARK  167  A    between atoms: _397  and  _399
REMARK  168  A    between atoms: _399  and  _400
REMARK  169  A    between atoms: _399  and  _402
REMARK  170  A    between atoms: _402  and  _403
REMARK  171  A    between atoms: _403  and  _404
REMARK  172  A    between atoms: _406  and  _408
REMARK  173  A    between atoms: _408  and  _409
REMARK  174  A    between atoms: _408  and  _411
REMARK  175  A    between atoms: _413  and  _415
REMARK  176  A    between atoms: _415  and  _416
REMARK  177  A    between atoms: _415  and  _418
REMARK  178  A    between atoms: _418  and  _419
REMARK  179  A    between atoms: _419  and  _420
REMARK  180  A    between atoms: _425  and  _427
REMARK  181  A    between atoms: _427  and  _428
REMARK  182  A    between atoms: _427  and  _430
REMARK  183  A    between atoms: _430  and  _431
REMARK  184  A    between atoms: _431  and  _432
REMARK  185  A    between atoms: _432  and  _433
REMARK  186  A    between atoms: _433  and  _434
REMARK  187  A    between atoms: _438  and  _440
REMARK  188  A    between atoms: _440  and  _441
REMARK  189  A    between atoms: _440  and  _443
REMARK  190  A    between atoms: _443  and  _444
REMARK  191  A    between atoms: _449  and  _450
REMARK  192  A    between atoms: _452  and  _454
REMARK  193  A    between atoms: _454  and  _455
REMARK  194  A    between atoms: _454  and  _457
REMARK  195  A    between atoms: _457  and  _458
REMARK  196  A    between atoms: _458  and  _459
REMARK  197  A    between atoms: _464  and  _466
REMARK  198  A    between atoms: _466  and  _467
REMARK  199  A    between atoms: _469  and  _471
REMARK  200  A    between atoms: _471  and  _472
REMARK  201  A    between atoms: _471  and  _474
REMARK  202  A    between atoms: _474  and  _475
REMARK  203  A    between atoms: _480  and  _482
REMARK  204  A    between atoms: _482  and  _483
REMARK  205  A    between atoms: _486  and  _488
REMARK  206  A    between atoms: _488  and  _489
REMARK  207  A    between atoms: _488  and  _491
REMARK  208  A    between atoms: _491  and  _492
REMARK  209  A    between atoms: _492  and  _493
REMARK  210  A    between atoms: _493  and  _494
REMARK  211  A    between atoms: _494  and  _495
REMARK  212  A    between atoms: _499  and  _501
REMARK  213  A    between atoms: _501  and  _502
REMARK  214  A    between atoms: _501  and  _504
REMARK  215  A    between atoms: _504  and  _505
REMARK  216  A    between atoms: _505  and  _506
REMARK  217  A    between atoms: _505  and  _507
REMARK  218  A    between atoms: _506  and  MG_619
REMARK  219  A    between atoms: _510  and  _512
REMARK  220  A    between atoms: _512  and  _513
REMARK  221  A    between atoms: _512  and  _515
REMARK  222  A    between atoms: _515  and  _516
REMARK  223  A    between atoms: _522  and  _524
REMARK  224  A    between atoms: _524  and  _525
REMARK  225  A    between atoms: _524  and  _527
REMARK  226  A    between atoms: _527  and  _528
REMARK  227  A    between atoms: _530  and  _532
REMARK  228  A    between atoms: _532  and  _533
REMARK  229  A    between atoms: _532  and  _535
REMARK  230  A    between atoms: _538  and  _540
REMARK  231  A    between atoms: _540  and  _541
REMARK  232  A    between atoms: _540  and  _543
REMARK  233  A    between atoms: _543  and  _544
REMARK  234  A    between atoms: _550  and  _552
REMARK  235  A    between atoms: _552  and  _553
REMARK  236  A    between atoms: _552  and  _555
REMARK  237  A    between atoms: _555  and  _556
REMARK  238  A    between atoms: _560  and  _561
REMARK  239  A    between atoms: _566  and  _568
REMARK  240  A    between atoms: _568  and  _569
REMARK  241  A    between atoms: _568  and  _571
REMARK  242  A    between atoms: _571  and  _572
REMARK  243  A    between atoms: _578  and  _580
REMARK  244  A    between atoms: _580  and  _581
REMARK  245  A    between atoms: _580  and  _583
REMARK  246  A    between atoms: _583  and  _584
REMARK  247  A    between atoms: _589  and  _590
REMARK  248  A    between atoms: _592  and  _594
REMARK  249  A    between atoms: _594  and  _595
REMARK  250  A    between atoms: _594  and  _597
REMARK  251  A    between atoms: _597  and  _598
REMARK  252  A    between atoms: _598  and  _599
REMARK  253  A    between atoms: _601  and  _603
REMARK  254  A    between atoms: _603  and  _604
REMARK  255  A    between atoms: _603  and  _606
REMARK  256  A    between atoms: _606  and  _607
REMARK  257  A    between atoms: _610  and  _612
REMARK  258  A    between atoms: _612  and  _613
REMARK  259  A    between atoms: _612  and  _615
REMARK  260  A    between atoms: _615  and  _616
REMARK                            x       y       z     vdW  Elec       q    Type
REMARK                         _______ _______ _______ _____ _____    ______ ____
ROOT
ATOM      1  O   HOH     1       2.101  11.992  45.213  0.00  0.00    +0.000 OA
ENDROOT
TORSDOF 0
REMARK  Name = ../refined-set-2016/3dnt/3dnt_pocket.pdb
REMARK  260 active torsions:
REMARK  status: ('A' for Active; 'I' for Inactive)
REMARK    1  A    between atoms: _1  and  _3
REMARK    2  A    between atoms: _3  and  _4
REMARK    3  A    between atoms: _3  and  _6
REMARK    4  A    between atoms: _6  and  _7
REMARK    5  A    between atoms: _12  and  _14
REMARK    6  A    between atoms: _14  and  _15
REMARK    7  A    between atoms: _14  and  _17
REMARK    8  A    between atoms: _17  and  _18
REMARK    9  A    between atoms: _21  and  _23
REMARK   10  A    between atoms: _23  and  _24
REMARK   11  A    between atoms: _23  and  _26
REMARK   12  A    between atoms: _26  and  _27
REMARK   13  A    between atoms: _31  and  _32
REMARK   14  A    between atoms: _37  and  _39
REMARK   15  A    between atoms: _39  and  _40
REMARK   16  A    between atoms: _39  and  _42
REMARK   17  A    between atoms: _42  and  _43
REMARK   18  A    between atoms: _46  and  _48
REMARK   19  A    between atoms: _48  and  _49
REMARK   20  A    between atoms: _48  and  _51
REMARK   21  A    between atoms: _51  and  _52
REMARK   22  A    between atoms: _54  and  _56
REMARK   23  A    between atoms: _56  and  _57
REMARK   24  A    between atoms: _56  and  _59
REMARK   25  A    between atoms: _59  and  _60
REMARK   26  A    between atoms: _62  and  _64
REMARK   27  A    between atoms: _64  and  _65
REMARK   28  A    between atoms: _64  and  _67
REMARK   29  A    between atoms: _70  and  _72
REMARK   30  A    between atoms: _72  and  _73
REMARK   31  A    between atoms: _75  and  _77
REMARK   32  A    between atoms: _77  and  _78
REMARK   33  A    between atoms: _77  and  _80
REMARK   34  A    between atoms: _80  and  _81
REMARK   35  A    between atoms: _83  and  _85
REMARK   36  A    between atoms: _85  and  _86
REMARK   37  A    between atoms: _85  and  _88
REMARK   38  A    between atoms: _91  and  _93
REMARK   39  A    between atoms: _93  and  _94
REMARK   40  A    between atoms: _97  and  _99
REMARK   41  A    between atoms: _99  and  _100
REMARK   42  A    between atoms: _102  and  _104
REMARK   43  A    between atoms: _104  and  _105
REMARK   44  A    between atoms: _108  and  _110
REMARK   45  A    between atoms: _110  and  _111
REMARK   46  A    between atoms: _110  and  _113
REMARK   47  A    between atoms: _113  and  _114
REMARK   48  A    between atoms: _114  and  _115
REMARK   49  A    between atoms: _120  and  _122
REMARK   50  A    between atoms: _122  and  _123
REMARK   51  A    between atoms: _122  and  _125
REMARK   52  A    between atoms: _125  and  _126
REMARK   53  A    between atoms: _126  and  _127
REMARK   54  A    between atoms: _130  and  _132
REMARK   55  A    between atoms: _132  and  _133
REMARK   56  A    between atoms: _132  and  _135
REMARK   57  A    between atoms: _135  and  _136
REMARK   58  A    between atoms: _136  and  _137
REMARK   59  A    between atoms: _137  and  _138
REMARK   60  A    between atoms: _138  and  _139
REMARK   61  A    between atoms: _143  and  _145
REMARK   62  A    between atoms: _145  and  _146
REMARK   63  A    between atoms: _145  and  _148
REMARK   64  A    between atoms: _148  and  _149
REMARK   65  A    between atoms: _152  and  _154
REMARK   66  A    between atoms: _154  and  _155
REMARK   67  A    between atoms: _154  and  _157
REMARK   68  A    between atoms: _157  and  _158
REMARK   69  A    between atoms: _163  and  _165
REMARK   70  A    between atoms: _165  and  _166
REMARK   71  A    between atoms: _165  and  _168
REMARK   72  A    between atoms: _168  and  _169
REMARK   73  A    between atoms: _172  and  _174
REMARK   74  A    between atoms: _174  and  _175
REMARK   75  A    between atoms: _174  and  _177
REMARK   76  A    between atoms: _177  and  _178
REMARK   77  A    between atoms: _181  and  _183
REMARK   78  A    between atoms: _183  and  _184
REMARK   79  A    between atoms: _183  and  _186
REMARK   80  A    between atoms: _186  and  _187
REMARK   81  A    between atoms: _187  and  _188
REMARK   82  A    between atoms: _188  and  _189
REMARK   83  A    between atoms: _189  and  _190
REMARK   84  A    between atoms: _194  and  _196
REMARK   85  A    between atoms: _196  and  _197
REMARK   86  A    between atoms: _196  and  _199
REMARK   87  A    between atoms: _199  and  _200
REMARK   88  A    between atoms: _203  and  _205
REMARK   89  A    between atoms: _205  and  _206
REMARK   90  A    between atoms: _205  and  _208
REMARK   91  A    between atoms: _208  and  _209
REMARK   92  A    between atoms: _212  and  _214
REMARK   93  A    between atoms: _214  and  _215
REMARK   94  A    between atoms: _214  and  _217
REMARK   95  A    between atoms: _217  and  _218
REMARK   96  A    between atoms: _220  and  _222
REMARK   97  A    between atoms: _222  and  _223
REMARK   98  A    between atoms: _222  and  _225
REMARK   99  A    between atoms: _225  and  _226
REMARK  100  A    between atoms: _226  and  _227
REMARK  101  A    between atoms: _230  and  _232
REMARK  102  A    between atoms: _232  and  _233
REMARK  103  A    between atoms: _232  and  _235
REMARK  104  A    between atoms: _235  and  _236
REMARK  105  A    between atoms: _239  and  _241
REMARK  106  A    between atoms: _241  and  _242
REMARK  107  A    between atoms: _241  and  _244
REMARK  108  A    between atoms: _248  and  _249
REMARK  109  A    between atoms: _254  and  _256
REMARK  110  A    between atoms: _256  and  _257
REMARK  111  A    between atoms: _256  and  _259
REMARK  112  A    between atoms: _259  and  _260
REMARK  113  A    between atoms: _263  and  _265
REMARK  114  A    between atoms: _265  and  _266
REMARK  115  A    between atoms: _269  and  _271
REMARK  116  A    between atoms: _271  and  _272
REMARK  117  A    between atoms: _271  and  _274
REMARK  118  A    between atoms: _274  and  _275
REMARK  119  A    between atoms: _278  and  _280
REMARK  120  A    between atoms: _280  and  _281
REMARK  121  A    between atoms: _284  and  _286
REMARK  122  A    between atoms: _286  and  _287
REMARK  123  A    between atoms: _286  and  _289
REMARK  124  A    between atoms: _292  and  _294
REMARK  125  A    between atoms: _294  and  _295
REMARK  126  A    between atoms: _294  and  _297
REMARK  127  A    between atoms: _297  and  _298
REMARK  128  A    between atoms: _298  and  _299
REMARK  129  A    between atoms: _302  and  _304
REMARK  130  A    between atoms: _304  and  _305
REMARK  131  A    between atoms: _304  and  _307
REMARK  132  A    between atoms: _307  and  _308
REMARK  133  A    between atoms: _308  and  _309
REMARK  134  A    between atoms: _309  and  _310
REMARK  135  A    between atoms: _319  and  _321
REMARK  136  A    between atoms: _321  and  _322
REMARK  137  A    between atoms: _321  and  _324
REMARK  138  A    between atoms: _324  and  _325
REMARK  139  A    between atoms: _331  and  _333
REMARK  140  A    between atoms: _333  and  _334
REMARK  141  A    between atoms: _333  and  _336
REMARK  142  A    between atoms: _336  and  _337
REMARK  143  A    between atoms: _340  and  _342
REMARK  144  A    between atoms: _342  and  _343
REMARK  145  A    between atoms: _342  and  _345
REMARK  146  A    between atoms: _345  and  _346
REMARK  147  A    between atoms: _346  and  _347
REMARK  148  A    between atoms: _347  and  _348
REMARK  149  A    between atoms: _357  and  _359
REMARK  150  A    between atoms: _359  and  _360
REMARK  151  A    between atoms: _359  and  _362
REMARK  152  A    between atoms: _362  and  _363
REMARK  153  A    between atoms: _366  and  _368
REMARK  154  A    between atoms: _368  and  _369
REMARK  155  A    between atoms: _368  and  _371
REMARK  156  A    between atoms: _371  and  _372
REMARK  157  A    between atoms: _372  and  _373
REMARK  158  A    between atoms: _378  and  _380
REMARK  159  A    between atoms: _380  and  _381
REMARK  160  A    between atoms: _380  and  _383
REMARK  161  A    between atoms: _383  and  _384
REMARK  162  A    between atoms: _384  and  _385
REMARK  163  A    between atoms: _388  and  _390
REMARK  164  A    between atoms: _390  and  _391
REMARK  165  A    between atoms: _390  and  _393
REMARK  166  A    between atoms: _393  and  _394
REMARK  167  A    between atoms: _397  and  _399
REMARK  168  A    between atoms: _399  and  _400
REMARK  169  A    between atoms: _399  and  _402
REMARK  170  A    between atoms: _402  and  _403
REMARK  171  A    between atoms: _403  and  _404
REMARK  172  A    between atoms: _406  and  _408
REMARK  173  A    between atoms: _408  and  _409
REMARK  174  A    between atoms: _408  and  _411
REMARK  175  A    between atoms: _413  and  _415
REMARK  176  A    between atoms: _415  and  _416
REMARK  177  A    between atoms: _415  and  _418
REMARK  178  A    between atoms: _418  and  _419
REMARK  179  A    between atoms: _419  and  _420
REMARK  180  A    between atoms: _425  and  _427
REMARK  181  A    between atoms: _427  and  _428
REMARK  182  A    between atoms: _427  and  _430
REMARK  183  A    between atoms: _430  and  _431
REMARK  184  A    between atoms: _431  and  _432
REMARK  185  A    between atoms: _432  and  _433
REMARK  186  A    between atoms: _433  and  _434
REMARK  187  A    between atoms: _438  and  _440
REMARK  188  A    between atoms: _440  and  _441
REMARK  189  A    between atoms: _440  and  _443
REMARK  190  A    between atoms: _443  and  _444
REMARK  191  A    between atoms: _449  and  _450
REMARK  192  A    between atoms: _452  and  _454
REMARK  193  A    between atoms: _454  and  _455
REMARK  194  A    between atoms: _454  and  _457
REMARK  195  A    between atoms: _457  and  _458
REMARK  196  A    between atoms: _458  and  _459
REMARK  197  A    between atoms: _464  and  _466
REMARK  198  A    between atoms: _466  and  _467
REMARK  199  A    between atoms: _469  and  _471
REMARK  200  A    between atoms: _471  and  _472
REMARK  201  A    between atoms: _471  and  _474
REMARK  202  A    between atoms: _474  and  _475
REMARK  203  A    between atoms: _480  and  _482
REMARK  204  A    between atoms: _482  and  _483
REMARK  205  A    between atoms: _486  and  _488
REMARK  206  A    between atoms: _488  and  _489
REMARK  207  A    between atoms: _488  and  _491
REMARK  208  A    between atoms: _491  and  _492
REMARK  209  A    between atoms: _492  and  _493
REMARK  210  A    between atoms: _493  and  _494
REMARK  211  A    between atoms: _494  and  _495
REMARK  212  A    between atoms: _499  and  _501
REMARK  213  A    between atoms: _501  and  _502
REMARK  214  A    between atoms: _501  and  _504
REMARK  215  A    between atoms: _504  and  _505
REMARK  216  A    between atoms: _505  and  _506
REMARK  217  A    between atoms: _505  and  _507
REMARK  218  A    between atoms: _506  and  MG_619
REMARK  219  A    between atoms: _510  and  _512
REMARK  220  A    between atoms: _512  and  _513
REMARK  221  A    between atoms: _512  and  _515
REMARK  222  A    between atoms: _515  and  _516
REMARK  223  A    between atoms: _522  and  _524
REMARK  224  A    between atoms: _524  and  _525
REMARK  225  A    between atoms: _524  and  _527
REMARK  226  A    between atoms: _527  and  _528
REMARK  227  A    between atoms: _530  and  _532
REMARK  228  A    between atoms: _532  and  _533
REMARK  229  A    between atoms: _532  and  _535
REMARK  230  A    between atoms: _538  and  _540
REMARK  231  A    between atoms: _540  and  _541
REMARK  232  A    between atoms: _540  and  _543
REMARK  233  A    between atoms: _543  and  _544
REMARK  234  A    between atoms: _550  and  _552
REMARK  235  A    between atoms: _552  and  _553
REMARK  236  A    between atoms: _552  and  _555
REMARK  237  A    between atoms: _555  and  _556
REMARK  238  A    between atoms: _560  and  _561
REMARK  239  A    between atoms: _566  and  _568
REMARK  240  A    between atoms: _568  and  _569
REMARK  241  A    between atoms: _568  and  _571
REMARK  242  A    between atoms: _571  and  _572
REMARK  243  A    between atoms: _578  and  _580
REMARK  244  A    between atoms: _580  and  _581
REMARK  245  A    between atoms: _580  and  _583
REMARK  246  A    between atoms: _583  and  _584
REMARK  247  A    between atoms: _589  and  _590
REMARK  248  A    between atoms: _592  and  _594
REMARK  249  A    between atoms: _594  and  _595
REMARK  250  A    between atoms: _594  and  _597
REMARK  251  A    between atoms: _597  and  _598
REMARK  252  A    between atoms: _598  and  _599
REMARK  253  A    between atoms: _601  and  _603
REMARK  254  A    between atoms: _603  and  _604
REMARK  255  A    between atoms: _603  and  _606
REMARK  256  A    between atoms: _606  and  _607
REMARK  257  A    between atoms: _610  and  _612
REMARK  258  A    between atoms: _612  and  _613
REMARK  259  A    between atoms: _612  and  _615
REMARK  260  A    between atoms: _615  and  _616
REMARK                            x       y       z     vdW  Elec       q    Type
REMARK                         _______ _______ _______ _____ _____    ______ ____
ROOT
ATOM      1  O   HOH     1      -7.912  13.306  45.426  0.00  0.00    +0.000 OA
ENDROOT
TORSDOF 0
REMARK  Name = ../refined-set-2016/3dnt/3dnt_pocket.pdb
REMARK  260 active torsions:
REMARK  status: ('A' for Active; 'I' for Inactive)
REMARK    1  A    between atoms: _1  and  _3
REMARK    2  A    between atoms: _3  and  _4
REMARK    3  A    between atoms: _3  and  _6
REMARK    4  A    between atoms: _6  and  _7
REMARK    5  A    between atoms: _12  and  _14
REMARK    6  A    between atoms: _14  and  _15
REMARK    7  A    between atoms: _14  and  _17
REMARK    8  A    between atoms: _17  and  _18
REMARK    9  A    between atoms: _21  and  _23
REMARK   10  A    between atoms: _23  and  _24
REMARK   11  A    between atoms: _23  and  _26
REMARK   12  A    between atoms: _26  and  _27
REMARK   13  A    between atoms: _31  and  _32
REMARK   14  A    between atoms: _37  and  _39
REMARK   15  A    between atoms: _39  and  _40
REMARK   16  A    between atoms: _39  and  _42
REMARK   17  A    between atoms: _42  and  _43
REMARK   18  A    between atoms: _46  and  _48
REMARK   19  A    between atoms: _48  and  _49
REMARK   20  A    between atoms: _48  and  _51
REMARK   21  A    between atoms: _51  and  _52
REMARK   22  A    between atoms: _54  and  _56
REMARK   23  A    between atoms: _56  and  _57
REMARK   24  A    between atoms: _56  and  _59
REMARK   25  A    between atoms: _59  and  _60
REMARK   26  A    between atoms: _62  and  _64
REMARK   27  A    between atoms: _64  and  _65
REMARK   28  A    between atoms: _64  and  _67
REMARK   29  A    between atoms: _70  and  _72
REMARK   30  A    between atoms: _72  and  _73
REMARK   31  A    between atoms: _75  and  _77
REMARK   32  A    between atoms: _77  and  _78
REMARK   33  A    between atoms: _77  and  _80
REMARK   34  A    between atoms: _80  and  _81
REMARK   35  A    between atoms: _83  and  _85
REMARK   36  A    between atoms: _85  and  _86
REMARK   37  A    between atoms: _85  and  _88
REMARK   38  A    between atoms: _91  and  _93
REMARK   39  A    between atoms: _93  and  _94
REMARK   40  A    between atoms: _97  and  _99
REMARK   41  A    between atoms: _99  and  _100
REMARK   42  A    between atoms: _102  and  _104
REMARK   43  A    between atoms: _104  and  _105
REMARK   44  A    between atoms: _108  and  _110
REMARK   45  A    between atoms: _110  and  _111
REMARK   46  A    between atoms: _110  and  _113
REMARK   47  A    between atoms: _113  and  _114
REMARK   48  A    between atoms: _114  and  _115
REMARK   49  A    between atoms: _120  and  _122
REMARK   50  A    between atoms: _122  and  _123
REMARK   51  A    between atoms: _122  and  _125
REMARK   52  A    between atoms: _125  and  _126
REMARK   53  A    between atoms: _126  and  _127
REMARK   54  A    between atoms: _130  and  _132
REMARK   55  A    between atoms: _132  and  _133
REMARK   56  A    between atoms: _132  and  _135
REMARK   57  A    between atoms: _135  and  _136
REMARK   58  A    between atoms: _136  and  _137
REMARK   59  A    between atoms: _137  and  _138
REMARK   60  A    between atoms: _138  and  _139
REMARK   61  A    between atoms: _143  and  _145
REMARK   62  A    between atoms: _145  and  _146
REMARK   63  A    between atoms: _145  and  _148
REMARK   64  A    between atoms: _148  and  _149
REMARK   65  A    between atoms: _152  and  _154
REMARK   66  A    between atoms: _154  and  _155
REMARK   67  A    between atoms: _154  and  _157
REMARK   68  A    between atoms: _157  and  _158
REMARK   69  A    between atoms: _163  and  _165
REMARK   70  A    between atoms: _165  and  _166
REMARK   71  A    between atoms: _165  and  _168
REMARK   72  A    between atoms: _168  and  _169
REMARK   73  A    between atoms: _172  and  _174
REMARK   74  A    between atoms: _174  and  _175
REMARK   75  A    between atoms: _174  and  _177
REMARK   76  A    between atoms: _177  and  _178
REMARK   77  A    between atoms: _181  and  _183
REMARK   78  A    between atoms: _183  and  _184
REMARK   79  A    between atoms: _183  and  _186
REMARK   80  A    between atoms: _186  and  _187
REMARK   81  A    between atoms: _187  and  _188
REMARK   82  A    between atoms: _188  and  _189
REMARK   83  A    between atoms: _189  and  _190
REMARK   84  A    between atoms: _194  and  _196
REMARK   85  A    between atoms: _196  and  _197
REMARK   86  A    between atoms: _196  and  _199
REMARK   87  A    between atoms: _199  and  _200
REMARK   88  A    between atoms: _203  and  _205
REMARK   89  A    between atoms: _205  and  _206
REMARK   90  A    between atoms: _205  and  _208
REMARK   91  A    between atoms: _208  and  _209
REMARK   92  A    between atoms: _212  and  _214
REMARK   93  A    between atoms: _214  and  _215
REMARK   94  A    between atoms: _214  and  _217
REMARK   95  A    between atoms: _217  and  _218
REMARK   96  A    between atoms: _220  and  _222
REMARK   97  A    between atoms: _222  and  _223
REMARK   98  A    between atoms: _222  and  _225
REMARK   99  A    between atoms: _225  and  _226
REMARK  100  A    between atoms: _226  and  _227
REMARK  101  A    between atoms: _230  and  _232
REMARK  102  A    between atoms: _232  and  _233
REMARK  103  A    between atoms: _232  and  _235
REMARK  104  A    between atoms: _235  and  _236
REMARK  105  A    between atoms: _239  and  _241
REMARK  106  A    between atoms: _241  and  _242
REMARK  107  A    between atoms: _241  and  _244
REMARK  108  A    between atoms: _248  and  _249
REMARK  109  A    between atoms: _254  and  _256
REMARK  110  A    between atoms: _256  and  _257
REMARK  111  A    between atoms: _256  and  _259
REMARK  112  A    between atoms: _259  and  _260
REMARK  113  A    between atoms: _263  and  _265
REMARK  114  A    between atoms: _265  and  _266
REMARK  115  A    between atoms: _269  and  _271
REMARK  116  A    between atoms: _271  and  _272
REMARK  117  A    between atoms: _271  and  _274
REMARK  118  A    between atoms: _274  and  _275
REMARK  119  A    between atoms: _278  and  _280
REMARK  120  A    between atoms: _280  and  _281
REMARK  121  A    between atoms: _284  and  _286
REMARK  122  A    between atoms: _286  and  _287
REMARK  123  A    between atoms: _286  and  _289
REMARK  124  A    between atoms: _292  and  _294
REMARK  125  A    between atoms: _294  and  _295
REMARK  126  A    between atoms: _294  and  _297
REMARK  127  A    between atoms: _297  and  _298
REMARK  128  A    between atoms: _298  and  _299
REMARK  129  A    between atoms: _302  and  _304
REMARK  130  A    between atoms: _304  and  _305
REMARK  131  A    between atoms: _304  and  _307
REMARK  132  A    between atoms: _307  and  _308
REMARK  133  A    between atoms: _308  and  _309
REMARK  134  A    between atoms: _309  and  _310
REMARK  135  A    between atoms: _319  and  _321
REMARK  136  A    between atoms: _321  and  _322
REMARK  137  A    between atoms: _321  and  _324
REMARK  138  A    between atoms: _324  and  _325
REMARK  139  A    between atoms: _331  and  _333
REMARK  140  A    between atoms: _333  and  _334
REMARK  141  A    between atoms: _333  and  _336
REMARK  142  A    between atoms: _336  and  _337
REMARK  143  A    between atoms: _340  and  _342
REMARK  144  A    between atoms: _342  and  _343
REMARK  145  A    between atoms: _342  and  _345
REMARK  146  A    between atoms: _345  and  _346
REMARK  147  A    between atoms: _346  and  _347
REMARK  148  A    between atoms: _347  and  _348
REMARK  149  A    between atoms: _357  and  _359
REMARK  150  A    between atoms: _359  and  _360
REMARK  151  A    between atoms: _359  and  _362
REMARK  152  A    between atoms: _362  and  _363
REMARK  153  A    between atoms: _366  and  _368
REMARK  154  A    between atoms: _368  and  _369
REMARK  155  A    between atoms: _368  and  _371
REMARK  156  A    between atoms: _371  and  _372
REMARK  157  A    between atoms: _372  and  _373
REMARK  158  A    between atoms: _378  and  _380
REMARK  159  A    between atoms: _380  and  _381
REMARK  160  A    between atoms: _380  and  _383
REMARK  161  A    between atoms: _383  and  _384
REMARK  162  A    between atoms: _384  and  _385
REMARK  163  A    between atoms: _388  and  _390
REMARK  164  A    between atoms: _390  and  _391
REMARK  165  A    between atoms: _390  and  _393
REMARK  166  A    between atoms: _393  and  _394
REMARK  167  A    between atoms: _397  and  _399
REMARK  168  A    between atoms: _399  and  _400
REMARK  169  A    between atoms: _399  and  _402
REMARK  170  A    between atoms: _402  and  _403
REMARK  171  A    between atoms: _403  and  _404
REMARK  172  A    between atoms: _406  and  _408
REMARK  173  A    between atoms: _408  and  _409
REMARK  174  A    between atoms: _408  and  _411
REMARK  175  A    between atoms: _413  and  _415
REMARK  176  A    between atoms: _415  and  _416
REMARK  177  A    between atoms: _415  and  _418
REMARK  178  A    between atoms: _418  and  _419
REMARK  179  A    between atoms: _419  and  _420
REMARK  180  A    between atoms: _425  and  _427
REMARK  181  A    between atoms: _427  and  _428
REMARK  182  A    between atoms: _427  and  _430
REMARK  183  A    between atoms: _430  and  _431
REMARK  184  A    between atoms: _431  and  _432
REMARK  185  A    between atoms: _432  and  _433
REMARK  186  A    between atoms: _433  and  _434
REMARK  187  A    between atoms: _438  and  _440
REMARK  188  A    between atoms: _440  and  _441
REMARK  189  A    between atoms: _440  and  _443
REMARK  190  A    between atoms: _443  and  _444
REMARK  191  A    between atoms: _449  and  _450
REMARK  192  A    between atoms: _452  and  _454
REMARK  193  A    between atoms: _454  and  _455
REMARK  194  A    between atoms: _454  and  _457
REMARK  195  A    between atoms: _457  and  _458
REMARK  196  A    between atoms: _458  and  _459
REMARK  197  A    between atoms: _464  and  _466
REMARK  198  A    between atoms: _466  and  _467
REMARK  199  A    between atoms: _469  and  _471
REMARK  200  A    between atoms: _471  and  _472
REMARK  201  A    between atoms: _471  and  _474
REMARK  202  A    between atoms: _474  and  _475
REMARK  203  A    between atoms: _480  and  _482
REMARK  204  A    between atoms: _482  and  _483
REMARK  205  A    between atoms: _486  and  _488
REMARK  206  A    between atoms: _488  and  _489
REMARK  207  A    between atoms: _488  and  _491
REMARK  208  A    between atoms: _491  and  _492
REMARK  209  A    between atoms: _492  and  _493
REMARK  210  A    between atoms: _493  and  _494
REMARK  211  A    between atoms: _494  and  _495
REMARK  212  A    between atoms: _499  and  _501
REMARK  213  A    between atoms: _501  and  _502
REMARK  214  A    between atoms: _501  and  _504
REMARK  215  A    between atoms: _504  and  _505
REMARK  216  A    between atoms: _505  and  _506
REMARK  217  A    between atoms: _505  and  _507
REMARK  218  A    between atoms: _506  and  MG_619
REMARK  219  A    between atoms: _510  and  _512
REMARK  220  A    between atoms: _512  and  _513
REMARK  221  A    between atoms: _512  and  _515
REMARK  222  A    between atoms: _515  and  _516
REMARK  223  A    between atoms: _522  and  _524
REMARK  224  A    between atoms: _524  and  _525
REMARK  225  A    between atoms: _524  and  _527
REMARK  226  A    between atoms: _527  and  _528
REMARK  227  A    between atoms: _530  and  _532
REMARK  228  A    between atoms: _532  and  _533
REMARK  229  A    between atoms: _532  and  _535
REMARK  230  A    between atoms: _538  and  _540
REMARK  231  A    between atoms: _540  and  _541
REMARK  232  A    between atoms: _540  and  _543
REMARK  233  A    between atoms: _543  and  _544
REMARK  234  A    between atoms: _550  and  _552
REMARK  235  A    between atoms: _552  and  _553
REMARK  236  A    between atoms: _552  and  _555
REMARK  237  A    between atoms: _555  and  _556
REMARK  238  A    between atoms: _560  and  _561
REMARK  239  A    between atoms: _566  and  _568
REMARK  240  A    between atoms: _568  and  _569
REMARK  241  A    between atoms: _568  and  _571
REMARK  242  A    between atoms: _571  and  _572
REMARK  243  A    between atoms: _578  and  _580
REMARK  244  A    between atoms: _580  and  _581
REMARK  245  A    between atoms: _580  and  _583
REMARK  246  A    between atoms: _583  and  _584
REMARK  247  A    between atoms: _589  and  _590
REMARK  248  A    between atoms: _592  and  _594
REMARK  249  A    between atoms: _594  and  _595
REMARK  250  A    between atoms: _594  and  _597
REMARK  251  A    between atoms: _597  and  _598
REMARK  252  A    between atoms: _598  and  _599
REMARK  253  A    between atoms: _601  and  _603
REMARK  254  A    between atoms: _603  and  _604
REMARK  255  A    between atoms: _603  and  _606
REMARK  256  A    between atoms: _606  and  _607
REMARK  257  A    between atoms: _610  and  _612
REMARK  258  A    between atoms: _612  and  _613
REMARK  259  A    between atoms: _612  and  _615
REMARK  260  A    between atoms: _615  and  _616
REMARK                            x       y       z     vdW  Elec       q    Type
REMARK                         _______ _______ _______ _____ _____    ______ ____
ROOT
ATOM      1  O   HOH     1       3.162  14.855  46.506  0.00  0.00    +0.000 OA
ENDROOT
TORSDOF 0
REMARK  Name = ../refined-set-2016/3dnt/3dnt_pocket.pdb
REMARK  260 active torsions:
REMARK  status: ('A' for Active; 'I' for Inactive)
REMARK    1  A    between atoms: _1  and  _3
REMARK    2  A    between atoms: _3  and  _4
REMARK    3  A    between atoms: _3  and  _6
REMARK    4  A    between atoms: _6  and  _7
REMARK    5  A    between atoms: _12  and  _14
REMARK    6  A    between atoms: _14  and  _15
REMARK    7  A    between atoms: _14  and  _17
REMARK    8  A    between atoms: _17  and  _18
REMARK    9  A    between atoms: _21  and  _23
REMARK   10  A    between atoms: _23  and  _24
REMARK   11  A    between atoms: _23  and  _26
REMARK   12  A    between atoms: _26  and  _27
REMARK   13  A    between atoms: _31  and  _32
REMARK   14  A    between atoms: _37  and  _39
REMARK   15  A    between atoms: _39  and  _40
REMARK   16  A    between atoms: _39  and  _42
REMARK   17  A    between atoms: _42  and  _43
REMARK   18  A    between atoms: _46  and  _48
REMARK   19  A    between atoms: _48  and  _49
REMARK   20  A    between atoms: _48  and  _51
REMARK   21  A    between atoms: _51  and  _52
REMARK   22  A    between atoms: _54  and  _56
REMARK   23  A    between atoms: _56  and  _57
REMARK   24  A    between atoms: _56  and  _59
REMARK   25  A    between atoms: _59  and  _60
REMARK   26  A    between atoms: _62  and  _64
REMARK   27  A    between atoms: _64  and  _65
REMARK   28  A    between atoms: _64  and  _67
REMARK   29  A    between atoms: _70  and  _72
REMARK   30  A    between atoms: _72  and  _73
REMARK   31  A    between atoms: _75  and  _77
REMARK   32  A    between atoms: _77  and  _78
REMARK   33  A    between atoms: _77  and  _80
REMARK   34  A    between atoms: _80  and  _81
REMARK   35  A    between atoms: _83  and  _85
REMARK   36  A    between atoms: _85  and  _86
REMARK   37  A    between atoms: _85  and  _88
REMARK   38  A    between atoms: _91  and  _93
REMARK   39  A    between atoms: _93  and  _94
REMARK   40  A    between atoms: _97  and  _99
REMARK   41  A    between atoms: _99  and  _100
REMARK   42  A    between atoms: _102  and  _104
REMARK   43  A    between atoms: _104  and  _105
REMARK   44  A    between atoms: _108  and  _110
REMARK   45  A    between atoms: _110  and  _111
REMARK   46  A    between atoms: _110  and  _113
REMARK   47  A    between atoms: _113  and  _114
REMARK   48  A    between atoms: _114  and  _115
REMARK   49  A    between atoms: _120  and  _122
REMARK   50  A    between atoms: _122  and  _123
REMARK   51  A    between atoms: _122  and  _125
REMARK   52  A    between atoms: _125  and  _126
REMARK   53  A    between atoms: _126  and  _127
REMARK   54  A    between atoms: _130  and  _132
REMARK   55  A    between atoms: _132  and  _133
REMARK   56  A    between atoms: _132  and  _135
REMARK   57  A    between atoms: _135  and  _136
REMARK   58  A    between atoms: _136  and  _137
REMARK   59  A    between atoms: _137  and  _138
REMARK   60  A    between atoms: _138  and  _139
REMARK   61  A    between atoms: _143  and  _145
REMARK   62  A    between atoms: _145  and  _146
REMARK   63  A    between atoms: _145  and  _148
REMARK   64  A    between atoms: _148  and  _149
REMARK   65  A    between atoms: _152  and  _154
REMARK   66  A    between atoms: _154  and  _155
REMARK   67  A    between atoms: _154  and  _157
REMARK   68  A    between atoms: _157  and  _158
REMARK   69  A    between atoms: _163  and  _165
REMARK   70  A    between atoms: _165  and  _166
REMARK   71  A    between atoms: _165  and  _168
REMARK   72  A    between atoms: _168  and  _169
REMARK   73  A    between atoms: _172  and  _174
REMARK   74  A    between atoms: _174  and  _175
REMARK   75  A    between atoms: _174  and  _177
REMARK   76  A    between atoms: _177  and  _178
REMARK   77  A    between atoms: _181  and  _183
REMARK   78  A    between atoms: _183  and  _184
REMARK   79  A    between atoms: _183  and  _186
REMARK   80  A    between atoms: _186  and  _187
REMARK   81  A    between atoms: _187  and  _188
REMARK   82  A    between atoms: _188  and  _189
REMARK   83  A    between atoms: _189  and  _190
REMARK   84  A    between atoms: _194  and  _196
REMARK   85  A    between atoms: _196  and  _197
REMARK   86  A    between atoms: _196  and  _199
REMARK   87  A    between atoms: _199  and  _200
REMARK   88  A    between atoms: _203  and  _205
REMARK   89  A    between atoms: _205  and  _206
REMARK   90  A    between atoms: _205  and  _208
REMARK   91  A    between atoms: _208  and  _209
REMARK   92  A    between atoms: _212  and  _214
REMARK   93  A    between atoms: _214  and  _215
REMARK   94  A    between atoms: _214  and  _217
REMARK   95  A    between atoms: _217  and  _218
REMARK   96  A    between atoms: _220  and  _222
REMARK   97  A    between atoms: _222  and  _223
REMARK   98  A    between atoms: _222  and  _225
REMARK   99  A    between atoms: _225  and  _226
REMARK  100  A    between atoms: _226  and  _227
REMARK  101  A    between atoms: _230  and  _232
REMARK  102  A    between atoms: _232  and  _233
REMARK  103  A    between atoms: _232  and  _235
REMARK  104  A    between atoms: _235  and  _236
REMARK  105  A    between atoms: _239  and  _241
REMARK  106  A    between atoms: _241  and  _242
REMARK  107  A    between atoms: _241  and  _244
REMARK  108  A    between atoms: _248  and  _249
REMARK  109  A    between atoms: _254  and  _256
REMARK  110  A    between atoms: _256  and  _257
REMARK  111  A    between atoms: _256  and  _259
REMARK  112  A    between atoms: _259  and  _260
REMARK  113  A    between atoms: _263  and  _265
REMARK  114  A    between atoms: _265  and  _266
REMARK  115  A    between atoms: _269  and  _271
REMARK  116  A    between atoms: _271  and  _272
REMARK  117  A    between atoms: _271  and  _274
REMARK  118  A    between atoms: _274  and  _275
REMARK  119  A    between atoms: _278  and  _280
REMARK  120  A    between atoms: _280  and  _281
REMARK  121  A    between atoms: _284  and  _286
REMARK  122  A    between atoms: _286  and  _287
REMARK  123  A    between atoms: _286  and  _289
REMARK  124  A    between atoms: _292  and  _294
REMARK  125  A    between atoms: _294  and  _295
REMARK  126  A    between atoms: _294  and  _297
REMARK  127  A    between atoms: _297  and  _298
REMARK  128  A    between atoms: _298  and  _299
REMARK  129  A    between atoms: _302  and  _304
REMARK  130  A    between atoms: _304  and  _305
REMARK  131  A    between atoms: _304  and  _307
REMARK  132  A    between atoms: _307  and  _308
REMARK  133  A    between atoms: _308  and  _309
REMARK  134  A    between atoms: _309  and  _310
REMARK  135  A    between atoms: _319  and  _321
REMARK  136  A    between atoms: _321  and  _322
REMARK  137  A    between atoms: _321  and  _324
REMARK  138  A    between atoms: _324  and  _325
REMARK  139  A    between atoms: _331  and  _333
REMARK  140  A    between atoms: _333  and  _334
REMARK  141  A    between atoms: _333  and  _336
REMARK  142  A    between atoms: _336  and  _337
REMARK  143  A    between atoms: _340  and  _342
REMARK  144  A    between atoms: _342  and  _343
REMARK  145  A    between atoms: _342  and  _345
REMARK  146  A    between atoms: _345  and  _346
REMARK  147  A    between atoms: _346  and  _347
REMARK  148  A    between atoms: _347  and  _348
REMARK  149  A    between atoms: _357  and  _359
REMARK  150  A    between atoms: _359  and  _360
REMARK  151  A    between atoms: _359  and  _362
REMARK  152  A    between atoms: _362  and  _363
REMARK  153  A    between atoms: _366  and  _368
REMARK  154  A    between atoms: _368  and  _369
REMARK  155  A    between atoms: _368  and  _371
REMARK  156  A    between atoms: _371  and  _372
REMARK  157  A    between atoms: _372  and  _373
REMARK  158  A    between atoms: _378  and  _380
REMARK  159  A    between atoms: _380  and  _381
REMARK  160  A    between atoms: _380  and  _383
REMARK  161  A    between atoms: _383  and  _384
REMARK  162  A    between atoms: _384  and  _385
REMARK  163  A    between atoms: _388  and  _390
REMARK  164  A    between atoms: _390  and  _391
REMARK  165  A    between atoms: _390  and  _393
REMARK  166  A    between atoms: _393  and  _394
REMARK  167  A    between atoms: _397  and  _399
REMARK  168  A    between atoms: _399  and  _400
REMARK  169  A    between atoms: _399  and  _402
REMARK  170  A    between atoms: _402  and  _403
REMARK  171  A    between atoms: _403  and  _404
REMARK  172  A    between atoms: _406  and  _408
REMARK  173  A    between atoms: _408  and  _409
REMARK  174  A    between atoms: _408  and  _411
REMARK  175  A    between atoms: _413  and  _415
REMARK  176  A    between atoms: _415  and  _416
REMARK  177  A    between atoms: _415  and  _418
REMARK  178  A    between atoms: _418  and  _419
REMARK  179  A    between atoms: _419  and  _420
REMARK  180  A    between atoms: _425  and  _427
REMARK  181  A    between atoms: _427  and  _428
REMARK  182  A    between atoms: _427  and  _430
REMARK  183  A    between atoms: _430  and  _431
REMARK  184  A    between atoms: _431  and  _432
REMARK  185  A    between atoms: _432  and  _433
REMARK  186  A    between atoms: _433  and  _434
REMARK  187  A    between atoms: _438  and  _440
REMARK  188  A    between atoms: _440  and  _441
REMARK  189  A    between atoms: _440  and  _443
REMARK  190  A    between atoms: _443  and  _444
REMARK  191  A    between atoms: _449  and  _450
REMARK  192  A    between atoms: _452  and  _454
REMARK  193  A    between atoms: _454  and  _455
REMARK  194  A    between atoms: _454  and  _457
REMARK  195  A    between atoms: _457  and  _458
REMARK  196  A    between atoms: _458  and  _459
REMARK  197  A    between atoms: _464  and  _466
REMARK  198  A    between atoms: _466  and  _467
REMARK  199  A    between atoms: _469  and  _471
REMARK  200  A    between atoms: _471  and  _472
REMARK  201  A    between atoms: _471  and  _474
REMARK  202  A    between atoms: _474  and  _475
REMARK  203  A    between atoms: _480  and  _482
REMARK  204  A    between atoms: _482  and  _483
REMARK  205  A    between atoms: _486  and  _488
REMARK  206  A    between atoms: _488  and  _489
REMARK  207  A    between atoms: _488  and  _491
REMARK  208  A    between atoms: _491  and  _492
REMARK  209  A    between atoms: _492  and  _493
REMARK  210  A    between atoms: _493  and  _494
REMARK  211  A    between atoms: _494  and  _495
REMARK  212  A    between atoms: _499  and  _501
REMARK  213  A    between atoms: _501  and  _502
REMARK  214  A    between atoms: _501  and  _504
REMARK  215  A    between atoms: _504  and  _505
REMARK  216  A    between atoms: _505  and  _506
REMARK  217  A    between atoms: _505  and  _507
REMARK  218  A    between atoms: _506  and  MG_619
REMARK  219  A    between atoms: _510  and  _512
REMARK  220  A    between atoms: _512  and  _513
REMARK  221  A    between atoms: _512  and  _515
REMARK  222  A    between atoms: _515  and  _516
REMARK  223  A    between atoms: _522  and  _524
REMARK  224  A    between atoms: _524  and  _525
REMARK  225  A    between atoms: _524  and  _527
REMARK  226  A    between atoms: _527  and  _528
REMARK  227  A    between atoms: _530  and  _532
REMARK  228  A    between atoms: _532  and  _533
REMARK  229  A    between atoms: _532  and  _535
REMARK  230  A    between atoms: _538  and  _540
REMARK  231  A    between atoms: _540  and  _541
REMARK  232  A    between atoms: _540  and  _543
REMARK  233  A    between atoms: _543  and  _544
REMARK  234  A    between atoms: _550  and  _552
REMARK  235  A    between atoms: _552  and  _553
REMARK  236  A    between atoms: _552  and  _555
REMARK  237  A    between atoms: _555  and  _556
REMARK  238  A    between atoms: _560  and  _561
REMARK  239  A    between atoms: _566  and  _568
REMARK  240  A    between atoms: _568  and  _569
REMARK  241  A    between atoms: _568  and  _571
REMARK  242  A    between atoms: _571  and  _572
REMARK  243  A    between atoms: _578  and  _580
REMARK  244  A    between atoms: _580  and  _581
REMARK  245  A    between atoms: _580  and  _583
REMARK  246  A    between atoms: _583  and  _584
REMARK  247  A    between atoms: _589  and  _590
REMARK  248  A    between atoms: _592  and  _594
REMARK  249  A    between atoms: _594  and  _595
REMARK  250  A    between atoms: _594  and  _597
REMARK  251  A    between atoms: _597  and  _598
REMARK  252  A    between atoms: _598  and  _599
REMARK  253  A    between atoms: _601  and  _603
REMARK  254  A    between atoms: _603  and  _604
REMARK  255  A    between atoms: _603  and  _606
REMARK  256  A    between atoms: _606  and  _607
REMARK  257  A    between atoms: _610  and  _612
REMARK  258  A    between atoms: _612  and  _613
REMARK  259  A    between atoms: _612  and  _615
REMARK  260  A    between atoms: _615  and  _616
REMARK                            x       y       z     vdW  Elec       q    Type
REMARK                         _______ _______ _______ _____ _____    ______ ____
ROOT
ATOM      1  O   HOH     1      -2.920  18.159  55.144  0.00  0.00    +0.000 OA
ENDROOT
TORSDOF 0
REMARK  Name = ../refined-set-2016/3dnt/3dnt_pocket.pdb
REMARK  260 active torsions:
REMARK  status: ('A' for Active; 'I' for Inactive)
REMARK    1  A    between atoms: _1  and  _3
REMARK    2  A    between atoms: _3  and  _4
REMARK    3  A    between atoms: _3  and  _6
REMARK    4  A    between atoms: _6  and  _7
REMARK    5  A    between atoms: _12  and  _14
REMARK    6  A    between atoms: _14  and  _15
REMARK    7  A    between atoms: _14  and  _17
REMARK    8  A    between atoms: _17  and  _18
REMARK    9  A    between atoms: _21  and  _23
REMARK   10  A    between atoms: _23  and  _24
REMARK   11  A    between atoms: _23  and  _26
REMARK   12  A    between atoms: _26  and  _27
REMARK   13  A    between atoms: _31  and  _32
REMARK   14  A    between atoms: _37  and  _39
REMARK   15  A    between atoms: _39  and  _40
REMARK   16  A    between atoms: _39  and  _42
REMARK   17  A    between atoms: _42  and  _43
REMARK   18  A    between atoms: _46  and  _48
REMARK   19  A    between atoms: _48  and  _49
REMARK   20  A    between atoms: _48  and  _51
REMARK   21  A    between atoms: _51  and  _52
REMARK   22  A    between atoms: _54  and  _56
REMARK   23  A    between atoms: _56  and  _57
REMARK   24  A    between atoms: _56  and  _59
REMARK   25  A    between atoms: _59  and  _60
REMARK   26  A    between atoms: _62  and  _64
REMARK   27  A    between atoms: _64  and  _65
REMARK   28  A    between atoms: _64  and  _67
REMARK   29  A    between atoms: _70  and  _72
REMARK   30  A    between atoms: _72  and  _73
REMARK   31  A    between atoms: _75  and  _77
REMARK   32  A    between atoms: _77  and  _78
REMARK   33  A    between atoms: _77  and  _80
REMARK   34  A    between atoms: _80  and  _81
REMARK   35  A    between atoms: _83  and  _85
REMARK   36  A    between atoms: _85  and  _86
REMARK   37  A    between atoms: _85  and  _88
REMARK   38  A    between atoms: _91  and  _93
REMARK   39  A    between atoms: _93  and  _94
REMARK   40  A    between atoms: _97  and  _99
REMARK   41  A    between atoms: _99  and  _100
REMARK   42  A    between atoms: _102  and  _104
REMARK   43  A    between atoms: _104  and  _105
REMARK   44  A    between atoms: _108  and  _110
REMARK   45  A    between atoms: _110  and  _111
REMARK   46  A    between atoms: _110  and  _113
REMARK   47  A    between atoms: _113  and  _114
REMARK   48  A    between atoms: _114  and  _115
REMARK   49  A    between atoms: _120  and  _122
REMARK   50  A    between atoms: _122  and  _123
REMARK   51  A    between atoms: _122  and  _125
REMARK   52  A    between atoms: _125  and  _126
REMARK   53  A    between atoms: _126  and  _127
REMARK   54  A    between atoms: _130  and  _132
REMARK   55  A    between atoms: _132  and  _133
REMARK   56  A    between atoms: _132  and  _135
REMARK   57  A    between atoms: _135  and  _136
REMARK   58  A    between atoms: _136  and  _137
REMARK   59  A    between atoms: _137  and  _138
REMARK   60  A    between atoms: _138  and  _139
REMARK   61  A    between atoms: _143  and  _145
REMARK   62  A    between atoms: _145  and  _146
REMARK   63  A    between atoms: _145  and  _148
REMARK   64  A    between atoms: _148  and  _149
REMARK   65  A    between atoms: _152  and  _154
REMARK   66  A    between atoms: _154  and  _155
REMARK   67  A    between atoms: _154  and  _157
REMARK   68  A    between atoms: _157  and  _158
REMARK   69  A    between atoms: _163  and  _165
REMARK   70  A    between atoms: _165  and  _166
REMARK   71  A    between atoms: _165  and  _168
REMARK   72  A    between atoms: _168  and  _169
REMARK   73  A    between atoms: _172  and  _174
REMARK   74  A    between atoms: _174  and  _175
REMARK   75  A    between atoms: _174  and  _177
REMARK   76  A    between atoms: _177  and  _178
REMARK   77  A    between atoms: _181  and  _183
REMARK   78  A    between atoms: _183  and  _184
REMARK   79  A    between atoms: _183  and  _186
REMARK   80  A    between atoms: _186  and  _187
REMARK   81  A    between atoms: _187  and  _188
REMARK   82  A    between atoms: _188  and  _189
REMARK   83  A    between atoms: _189  and  _190
REMARK   84  A    between atoms: _194  and  _196
REMARK   85  A    between atoms: _196  and  _197
REMARK   86  A    between atoms: _196  and  _199
REMARK   87  A    between atoms: _199  and  _200
REMARK   88  A    between atoms: _203  and  _205
REMARK   89  A    between atoms: _205  and  _206
REMARK   90  A    between atoms: _205  and  _208
REMARK   91  A    between atoms: _208  and  _209
REMARK   92  A    between atoms: _212  and  _214
REMARK   93  A    between atoms: _214  and  _215
REMARK   94  A    between atoms: _214  and  _217
REMARK   95  A    between atoms: _217  and  _218
REMARK   96  A    between atoms: _220  and  _222
REMARK   97  A    between atoms: _222  and  _223
REMARK   98  A    between atoms: _222  and  _225
REMARK   99  A    between atoms: _225  and  _226
REMARK  100  A    between atoms: _226  and  _227
REMARK  101  A    between atoms: _230  and  _232
REMARK  102  A    between atoms: _232  and  _233
REMARK  103  A    between atoms: _232  and  _235
REMARK  104  A    between atoms: _235  and  _236
REMARK  105  A    between atoms: _239  and  _241
REMARK  106  A    between atoms: _241  and  _242
REMARK  107  A    between atoms: _241  and  _244
REMARK  108  A    between atoms: _248  and  _249
REMARK  109  A    between atoms: _254  and  _256
REMARK  110  A    between atoms: _256  and  _257
REMARK  111  A    between atoms: _256  and  _259
REMARK  112  A    between atoms: _259  and  _260
REMARK  113  A    between atoms: _263  and  _265
REMARK  114  A    between atoms: _265  and  _266
REMARK  115  A    between atoms: _269  and  _271
REMARK  116  A    between atoms: _271  and  _272
REMARK  117  A    between atoms: _271  and  _274
REMARK  118  A    between atoms: _274  and  _275
REMARK  119  A    between atoms: _278  and  _280
REMARK  120  A    between atoms: _280  and  _281
REMARK  121  A    between atoms: _284  and  _286
REMARK  122  A    between atoms: _286  and  _287
REMARK  123  A    between atoms: _286  and  _289
REMARK  124  A    between atoms: _292  and  _294
REMARK  125  A    between atoms: _294  and  _295
REMARK  126  A    between atoms: _294  and  _297
REMARK  127  A    between atoms: _297  and  _298
REMARK  128  A    between atoms: _298  and  _299
REMARK  129  A    between atoms: _302  and  _304
REMARK  130  A    between atoms: _304  and  _305
REMARK  131  A    between atoms: _304  and  _307
REMARK  132  A    between atoms: _307  and  _308
REMARK  133  A    between atoms: _308  and  _309
REMARK  134  A    between atoms: _309  and  _310
REMARK  135  A    between atoms: _319  and  _321
REMARK  136  A    between atoms: _321  and  _322
REMARK  137  A    between atoms: _321  and  _324
REMARK  138  A    between atoms: _324  and  _325
REMARK  139  A    between atoms: _331  and  _333
REMARK  140  A    between atoms: _333  and  _334
REMARK  141  A    between atoms: _333  and  _336
REMARK  142  A    between atoms: _336  and  _337
REMARK  143  A    between atoms: _340  and  _342
REMARK  144  A    between atoms: _342  and  _343
REMARK  145  A    between atoms: _342  and  _345
REMARK  146  A    between atoms: _345  and  _346
REMARK  147  A    between atoms: _346  and  _347
REMARK  148  A    between atoms: _347  and  _348
REMARK  149  A    between atoms: _357  and  _359
REMARK  150  A    between atoms: _359  and  _360
REMARK  151  A    between atoms: _359  and  _362
REMARK  152  A    between atoms: _362  and  _363
REMARK  153  A    between atoms: _366  and  _368
REMARK  154  A    between atoms: _368  and  _369
REMARK  155  A    between atoms: _368  and  _371
REMARK  156  A    between atoms: _371  and  _372
REMARK  157  A    between atoms: _372  and  _373
REMARK  158  A    between atoms: _378  and  _380
REMARK  159  A    between atoms: _380  and  _381
REMARK  160  A    between atoms: _380  and  _383
REMARK  161  A    between atoms: _383  and  _384
REMARK  162  A    between atoms: _384  and  _385
REMARK  163  A    between atoms: _388  and  _390
REMARK  164  A    between atoms: _390  and  _391
REMARK  165  A    between atoms: _390  and  _393
REMARK  166  A    between atoms: _393  and  _394
REMARK  167  A    between atoms: _397  and  _399
REMARK  168  A    between atoms: _399  and  _400
REMARK  169  A    between atoms: _399  and  _402
REMARK  170  A    between atoms: _402  and  _403
REMARK  171  A    between atoms: _403  and  _404
REMARK  172  A    between atoms: _406  and  _408
REMARK  173  A    between atoms: _408  and  _409
REMARK  174  A    between atoms: _408  and  _411
REMARK  175  A    between atoms: _413  and  _415
REMARK  176  A    between atoms: _415  and  _416
REMARK  177  A    between atoms: _415  and  _418
REMARK  178  A    between atoms: _418  and  _419
REMARK  179  A    between atoms: _419  and  _420
REMARK  180  A    between atoms: _425  and  _427
REMARK  181  A    between atoms: _427  and  _428
REMARK  182  A    between atoms: _427  and  _430
REMARK  183  A    between atoms: _430  and  _431
REMARK  184  A    between atoms: _431  and  _432
REMARK  185  A    between atoms: _432  and  _433
REMARK  186  A    between atoms: _433  and  _434
REMARK  187  A    between atoms: _438  and  _440
REMARK  188  A    between atoms: _440  and  _441
REMARK  189  A    between atoms: _440  and  _443
REMARK  190  A    between atoms: _443  and  _444
REMARK  191  A    between atoms: _449  and  _450
REMARK  192  A    between atoms: _452  and  _454
REMARK  193  A    between atoms: _454  and  _455
REMARK  194  A    between atoms: _454  and  _457
REMARK  195  A    between atoms: _457  and  _458
REMARK  196  A    between atoms: _458  and  _459
REMARK  197  A    between atoms: _464  and  _466
REMARK  198  A    between atoms: _466  and  _467
REMARK  199  A    between atoms: _469  and  _471
REMARK  200  A    between atoms: _471  and  _472
REMARK  201  A    between atoms: _471  and  _474
REMARK  202  A    between atoms: _474  and  _475
REMARK  203  A    between atoms: _480  and  _482
REMARK  204  A    between atoms: _482  and  _483
REMARK  205  A    between atoms: _486  and  _488
REMARK  206  A    between atoms: _488  and  _489
REMARK  207  A    between atoms: _488  and  _491
REMARK  208  A    between atoms: _491  and  _492
REMARK  209  A    between atoms: _492  and  _493
REMARK  210  A    between atoms: _493  and  _494
REMARK  211  A    between atoms: _494  and  _495
REMARK  212  A    between atoms: _499  and  _501
REMARK  213  A    between atoms: _501  and  _502
REMARK  214  A    between atoms: _501  and  _504
REMARK  215  A    between atoms: _504  and  _505
REMARK  216  A    between atoms: _505  and  _506
REMARK  217  A    between atoms: _505  and  _507
REMARK  218  A    between atoms: _506  and  MG_619
REMARK  219  A    between atoms: _510  and  _512
REMARK  220  A    between atoms: _512  and  _513
REMARK  221  A    between atoms: _512  and  _515
REMARK  222  A    between atoms: _515  and  _516
REMARK  223  A    between atoms: _522  and  _524
REMARK  224  A    between atoms: _524  and  _525
REMARK  225  A    between atoms: _524  and  _527
REMARK  226  A    between atoms: _527  and  _528
REMARK  227  A    between atoms: _530  and  _532
REMARK  228  A    between atoms: _532  and  _533
REMARK  229  A    between atoms: _532  and  _535
REMARK  230  A    between atoms: _538  and  _540
REMARK  231  A    between atoms: _540  and  _541
REMARK  232  A    between atoms: _540  and  _543
REMARK  233  A    between atoms: _543  and  _544
REMARK  234  A    between atoms: _550  and  _552
REMARK  235  A    between atoms: _552  and  _553
REMARK  236  A    between atoms: _552  and  _555
REMARK  237  A    between atoms: _555  and  _556
REMARK  238  A    between atoms: _560  and  _561
REMARK  239  A    between atoms: _566  and  _568
REMARK  240  A    between atoms: _568  and  _569
REMARK  241  A    between atoms: _568  and  _571
REMARK  242  A    between atoms: _571  and  _572
REMARK  243  A    between atoms: _578  and  _580
REMARK  244  A    between atoms: _580  and  _581
REMARK  245  A    between atoms: _580  and  _583
REMARK  246  A    between atoms: _583  and  _584
REMARK  247  A    between atoms: _589  and  _590
REMARK  248  A    between atoms: _592  and  _594
REMARK  249  A    between atoms: _594  and  _595
REMARK  250  A    between atoms: _594  and  _597
REMARK  251  A    between atoms: _597  and  _598
REMARK  252  A    between atoms: _598  and  _599
REMARK  253  A    between atoms: _601  and  _603
REMARK  254  A    between atoms: _603  and  _604
REMARK  255  A    between atoms: _603  and  _606
REMARK  256  A    between atoms: _606  and  _607
REMARK  257  A    between atoms: _610  and  _612
REMARK  258  A    between atoms: _612  and  _613
REMARK  259  A    between atoms: _612  and  _615
REMARK  260  A    between atoms: _615  and  _616
REMARK                            x       y       z     vdW  Elec       q    Type
REMARK                         _______ _______ _______ _____ _____    ______ ____
ROOT
ATOM      1  O   HOH     1     -11.245  10.537  53.590  0.00  0.00    +0.000 OA
ENDROOT
TORSDOF 0
REMARK  Name = ../refined-set-2016/3dnt/3dnt_pocket.pdb
REMARK  260 active torsions:
REMARK  status: ('A' for Active; 'I' for Inactive)
REMARK    1  A    between atoms: _1  and  _3
REMARK    2  A    between atoms: _3  and  _4
REMARK    3  A    between atoms: _3  and  _6
REMARK    4  A    between atoms: _6  and  _7
REMARK    5  A    between atoms: _12  and  _14
REMARK    6  A    between atoms: _14  and  _15
REMARK    7  A    between atoms: _14  and  _17
REMARK    8  A    between atoms: _17  and  _18
REMARK    9  A    between atoms: _21  and  _23
REMARK   10  A    between atoms: _23  and  _24
REMARK   11  A    between atoms: _23  and  _26
REMARK   12  A    between atoms: _26  and  _27
REMARK   13  A    between atoms: _31  and  _32
REMARK   14  A    between atoms: _37  and  _39
REMARK   15  A    between atoms: _39  and  _40
REMARK   16  A    between atoms: _39  and  _42
REMARK   17  A    between atoms: _42  and  _43
REMARK   18  A    between atoms: _46  and  _48
REMARK   19  A    between atoms: _48  and  _49
REMARK   20  A    between atoms: _48  and  _51
REMARK   21  A    between atoms: _51  and  _52
REMARK   22  A    between atoms: _54  and  _56
REMARK   23  A    between atoms: _56  and  _57
REMARK   24  A    between atoms: _56  and  _59
REMARK   25  A    between atoms: _59  and  _60
REMARK   26  A    between atoms: _62  and  _64
REMARK   27  A    between atoms: _64  and  _65
REMARK   28  A    between atoms: _64  and  _67
REMARK   29  A    between atoms: _70  and  _72
REMARK   30  A    between atoms: _72  and  _73
REMARK   31  A    between atoms: _75  and  _77
REMARK   32  A    between atoms: _77  and  _78
REMARK   33  A    between atoms: _77  and  _80
REMARK   34  A    between atoms: _80  and  _81
REMARK   35  A    between atoms: _83  and  _85
REMARK   36  A    between atoms: _85  and  _86
REMARK   37  A    between atoms: _85  and  _88
REMARK   38  A    between atoms: _91  and  _93
REMARK   39  A    between atoms: _93  and  _94
REMARK   40  A    between atoms: _97  and  _99
REMARK   41  A    between atoms: _99  and  _100
REMARK   42  A    between atoms: _102  and  _104
REMARK   43  A    between atoms: _104  and  _105
REMARK   44  A    between atoms: _108  and  _110
REMARK   45  A    between atoms: _110  and  _111
REMARK   46  A    between atoms: _110  and  _113
REMARK   47  A    between atoms: _113  and  _114
REMARK   48  A    between atoms: _114  and  _115
REMARK   49  A    between atoms: _120  and  _122
REMARK   50  A    between atoms: _122  and  _123
REMARK   51  A    between atoms: _122  and  _125
REMARK   52  A    between atoms: _125  and  _126
REMARK   53  A    between atoms: _126  and  _127
REMARK   54  A    between atoms: _130  and  _132
REMARK   55  A    between atoms: _132  and  _133
REMARK   56  A    between atoms: _132  and  _135
REMARK   57  A    between atoms: _135  and  _136
REMARK   58  A    between atoms: _136  and  _137
REMARK   59  A    between atoms: _137  and  _138
REMARK   60  A    between atoms: _138  and  _139
REMARK   61  A    between atoms: _143  and  _145
REMARK   62  A    between atoms: _145  and  _146
REMARK   63  A    between atoms: _145  and  _148
REMARK   64  A    between atoms: _148  and  _149
REMARK   65  A    between atoms: _152  and  _154
REMARK   66  A    between atoms: _154  and  _155
REMARK   67  A    between atoms: _154  and  _157
REMARK   68  A    between atoms: _157  and  _158
REMARK   69  A    between atoms: _163  and  _165
REMARK   70  A    between atoms: _165  and  _166
REMARK   71  A    between atoms: _165  and  _168
REMARK   72  A    between atoms: _168  and  _169
REMARK   73  A    between atoms: _172  and  _174
REMARK   74  A    between atoms: _174  and  _175
REMARK   75  A    between atoms: _174  and  _177
REMARK   76  A    between atoms: _177  and  _178
REMARK   77  A    between atoms: _181  and  _183
REMARK   78  A    between atoms: _183  and  _184
REMARK   79  A    between atoms: _183  and  _186
REMARK   80  A    between atoms: _186  and  _187
REMARK   81  A    between atoms: _187  and  _188
REMARK   82  A    between atoms: _188  and  _189
REMARK   83  A    between atoms: _189  and  _190
REMARK   84  A    between atoms: _194  and  _196
REMARK   85  A    between atoms: _196  and  _197
REMARK   86  A    between atoms: _196  and  _199
REMARK   87  A    between atoms: _199  and  _200
REMARK   88  A    between atoms: _203  and  _205
REMARK   89  A    between atoms: _205  and  _206
REMARK   90  A    between atoms: _205  and  _208
REMARK   91  A    between atoms: _208  and  _209
REMARK   92  A    between atoms: _212  and  _214
REMARK   93  A    between atoms: _214  and  _215
REMARK   94  A    between atoms: _214  and  _217
REMARK   95  A    between atoms: _217  and  _218
REMARK   96  A    between atoms: _220  and  _222
REMARK   97  A    between atoms: _222  and  _223
REMARK   98  A    between atoms: _222  and  _225
REMARK   99  A    between atoms: _225  and  _226
REMARK  100  A    between atoms: _226  and  _227
REMARK  101  A    between atoms: _230  and  _232
REMARK  102  A    between atoms: _232  and  _233
REMARK  103  A    between atoms: _232  and  _235
REMARK  104  A    between atoms: _235  and  _236
REMARK  105  A    between atoms: _239  and  _241
REMARK  106  A    between atoms: _241  and  _242
REMARK  107  A    between atoms: _241  and  _244
REMARK  108  A    between atoms: _248  and  _249
REMARK  109  A    between atoms: _254  and  _256
REMARK  110  A    between atoms: _256  and  _257
REMARK  111  A    between atoms: _256  and  _259
REMARK  112  A    between atoms: _259  and  _260
REMARK  113  A    between atoms: _263  and  _265
REMARK  114  A    between atoms: _265  and  _266
REMARK  115  A    between atoms: _269  and  _271
REMARK  116  A    between atoms: _271  and  _272
REMARK  117  A    between atoms: _271  and  _274
REMARK  118  A    between atoms: _274  and  _275
REMARK  119  A    between atoms: _278  and  _280
REMARK  120  A    between atoms: _280  and  _281
REMARK  121  A    between atoms: _284  and  _286
REMARK  122  A    between atoms: _286  and  _287
REMARK  123  A    between atoms: _286  and  _289
REMARK  124  A    between atoms: _292  and  _294
REMARK  125  A    between atoms: _294  and  _295
REMARK  126  A    between atoms: _294  and  _297
REMARK  127  A    between atoms: _297  and  _298
REMARK  128  A    between atoms: _298  and  _299
REMARK  129  A    between atoms: _302  and  _304
REMARK  130  A    between atoms: _304  and  _305
REMARK  131  A    between atoms: _304  and  _307
REMARK  132  A    between atoms: _307  and  _308
REMARK  133  A    between atoms: _308  and  _309
REMARK  134  A    between atoms: _309  and  _310
REMARK  135  A    between atoms: _319  and  _321
REMARK  136  A    between atoms: _321  and  _322
REMARK  137  A    between atoms: _321  and  _324
REMARK  138  A    between atoms: _324  and  _325
REMARK  139  A    between atoms: _331  and  _333
REMARK  140  A    between atoms: _333  and  _334
REMARK  141  A    between atoms: _333  and  _336
REMARK  142  A    between atoms: _336  and  _337
REMARK  143  A    between atoms: _340  and  _342
REMARK  144  A    between atoms: _342  and  _343
REMARK  145  A    between atoms: _342  and  _345
REMARK  146  A    between atoms: _345  and  _346
REMARK  147  A    between atoms: _346  and  _347
REMARK  148  A    between atoms: _347  and  _348
REMARK  149  A    between atoms: _357  and  _359
REMARK  150  A    between atoms: _359  and  _360
REMARK  151  A    between atoms: _359  and  _362
REMARK  152  A    between atoms: _362  and  _363
REMARK  153  A    between atoms: _366  and  _368
REMARK  154  A    between atoms: _368  and  _369
REMARK  155  A    between atoms: _368  and  _371
REMARK  156  A    between atoms: _371  and  _372
REMARK  157  A    between atoms: _372  and  _373
REMARK  158  A    between atoms: _378  and  _380
REMARK  159  A    between atoms: _380  and  _381
REMARK  160  A    between atoms: _380  and  _383
REMARK  161  A    between atoms: _383  and  _384
REMARK  162  A    between atoms: _384  and  _385
REMARK  163  A    between atoms: _388  and  _390
REMARK  164  A    between atoms: _390  and  _391
REMARK  165  A    between atoms: _390  and  _393
REMARK  166  A    between atoms: _393  and  _394
REMARK  167  A    between atoms: _397  and  _399
REMARK  168  A    between atoms: _399  and  _400
REMARK  169  A    between atoms: _399  and  _402
REMARK  170  A    between atoms: _402  and  _403
REMARK  171  A    between atoms: _403  and  _404
REMARK  172  A    between atoms: _406  and  _408
REMARK  173  A    between atoms: _408  and  _409
REMARK  174  A    between atoms: _408  and  _411
REMARK  175  A    between atoms: _413  and  _415
REMARK  176  A    between atoms: _415  and  _416
REMARK  177  A    between atoms: _415  and  _418
REMARK  178  A    between atoms: _418  and  _419
REMARK  179  A    between atoms: _419  and  _420
REMARK  180  A    between atoms: _425  and  _427
REMARK  181  A    between atoms: _427  and  _428
REMARK  182  A    between atoms: _427  and  _430
REMARK  183  A    between atoms: _430  and  _431
REMARK  184  A    between atoms: _431  and  _432
REMARK  185  A    between atoms: _432  and  _433
REMARK  186  A    between atoms: _433  and  _434
REMARK  187  A    between atoms: _438  and  _440
REMARK  188  A    between atoms: _440  and  _441
REMARK  189  A    between atoms: _440  and  _443
REMARK  190  A    between atoms: _443  and  _444
REMARK  191  A    between atoms: _449  and  _450
REMARK  192  A    between atoms: _452  and  _454
REMARK  193  A    between atoms: _454  and  _455
REMARK  194  A    between atoms: _454  and  _457
REMARK  195  A    between atoms: _457  and  _458
REMARK  196  A    between atoms: _458  and  _459
REMARK  197  A    between atoms: _464  and  _466
REMARK  198  A    between atoms: _466  and  _467
REMARK  199  A    between atoms: _469  and  _471
REMARK  200  A    between atoms: _471  and  _472
REMARK  201  A    between atoms: _471  and  _474
REMARK  202  A    between atoms: _474  and  _475
REMARK  203  A    between atoms: _480  and  _482
REMARK  204  A    between atoms: _482  and  _483
REMARK  205  A    between atoms: _486  and  _488
REMARK  206  A    between atoms: _488  and  _489
REMARK  207  A    between atoms: _488  and  _491
REMARK  208  A    between atoms: _491  and  _492
REMARK  209  A    between atoms: _492  and  _493
REMARK  210  A    between atoms: _493  and  _494
REMARK  211  A    between atoms: _494  and  _495
REMARK  212  A    between atoms: _499  and  _501
REMARK  213  A    between atoms: _501  and  _502
REMARK  214  A    between atoms: _501  and  _504
REMARK  215  A    between atoms: _504  and  _505
REMARK  216  A    between atoms: _505  and  _506
REMARK  217  A    between atoms: _505  and  _507
REMARK  218  A    between atoms: _506  and  MG_619
REMARK  219  A    between atoms: _510  and  _512
REMARK  220  A    between atoms: _512  and  _513
REMARK  221  A    between atoms: _512  and  _515
REMARK  222  A    between atoms: _515  and  _516
REMARK  223  A    between atoms: _522  and  _524
REMARK  224  A    between atoms: _524  and  _525
REMARK  225  A    between atoms: _524  and  _527
REMARK  226  A    between atoms: _527  and  _528
REMARK  227  A    between atoms: _530  and  _532
REMARK  228  A    between atoms: _532  and  _533
REMARK  229  A    between atoms: _532  and  _535
REMARK  230  A    between atoms: _538  and  _540
REMARK  231  A    between atoms: _540  and  _541
REMARK  232  A    between atoms: _540  and  _543
REMARK  233  A    between atoms: _543  and  _544
REMARK  234  A    between atoms: _550  and  _552
REMARK  235  A    between atoms: _552  and  _553
REMARK  236  A    between atoms: _552  and  _555
REMARK  237  A    between atoms: _555  and  _556
REMARK  238  A    between atoms: _560  and  _561
REMARK  239  A    between atoms: _566  and  _568
REMARK  240  A    between atoms: _568  and  _569
REMARK  241  A    between atoms: _568  and  _571
REMARK  242  A    between atoms: _571  and  _572
REMARK  243  A    between atoms: _578  and  _580
REMARK  244  A    between atoms: _580  and  _581
REMARK  245  A    between atoms: _580  and  _583
REMARK  246  A    between atoms: _583  and  _584
REMARK  247  A    between atoms: _589  and  _590
REMARK  248  A    between atoms: _592  and  _594
REMARK  249  A    between atoms: _594  and  _595
REMARK  250  A    between atoms: _594  and  _597
REMARK  251  A    between atoms: _597  and  _598
REMARK  252  A    between atoms: _598  and  _599
REMARK  253  A    between atoms: _601  and  _603
REMARK  254  A    between atoms: _603  and  _604
REMARK  255  A    between atoms: _603  and  _606
REMARK  256  A    between atoms: _606  and  _607
REMARK  257  A    between atoms: _610  and  _612
REMARK  258  A    between atoms: _612  and  _613
REMARK  259  A    between atoms: _612  and  _615
REMARK  260  A    between atoms: _615  and  _616
REMARK                            x       y       z     vdW  Elec       q    Type
REMARK                         _______ _______ _______ _____ _____    ______ ____
ROOT
ATOM      1  O   HOH     1      -3.185  11.083  57.080  0.00  0.00    +0.000 OA
ENDROOT
TORSDOF 0
REMARK  Name = ../refined-set-2016/3dnt/3dnt_pocket.pdb
REMARK  260 active torsions:
REMARK  status: ('A' for Active; 'I' for Inactive)
REMARK    1  A    between atoms: _1  and  _3
REMARK    2  A    between atoms: _3  and  _4
REMARK    3  A    between atoms: _3  and  _6
REMARK    4  A    between atoms: _6  and  _7
REMARK    5  A    between atoms: _12  and  _14
REMARK    6  A    between atoms: _14  and  _15
REMARK    7  A    between atoms: _14  and  _17
REMARK    8  A    between atoms: _17  and  _18
REMARK    9  A    between atoms: _21  and  _23
REMARK   10  A    between atoms: _23  and  _24
REMARK   11  A    between atoms: _23  and  _26
REMARK   12  A    between atoms: _26  and  _27
REMARK   13  A    between atoms: _31  and  _32
REMARK   14  A    between atoms: _37  and  _39
REMARK   15  A    between atoms: _39  and  _40
REMARK   16  A    between atoms: _39  and  _42
REMARK   17  A    between atoms: _42  and  _43
REMARK   18  A    between atoms: _46  and  _48
REMARK   19  A    between atoms: _48  and  _49
REMARK   20  A    between atoms: _48  and  _51
REMARK   21  A    between atoms: _51  and  _52
REMARK   22  A    between atoms: _54  and  _56
REMARK   23  A    between atoms: _56  and  _57
REMARK   24  A    between atoms: _56  and  _59
REMARK   25  A    between atoms: _59  and  _60
REMARK   26  A    between atoms: _62  and  _64
REMARK   27  A    between atoms: _64  and  _65
REMARK   28  A    between atoms: _64  and  _67
REMARK   29  A    between atoms: _70  and  _72
REMARK   30  A    between atoms: _72  and  _73
REMARK   31  A    between atoms: _75  and  _77
REMARK   32  A    between atoms: _77  and  _78
REMARK   33  A    between atoms: _77  and  _80
REMARK   34  A    between atoms: _80  and  _81
REMARK   35  A    between atoms: _83  and  _85
REMARK   36  A    between atoms: _85  and  _86
REMARK   37  A    between atoms: _85  and  _88
REMARK   38  A    between atoms: _91  and  _93
REMARK   39  A    between atoms: _93  and  _94
REMARK   40  A    between atoms: _97  and  _99
REMARK   41  A    between atoms: _99  and  _100
REMARK   42  A    between atoms: _102  and  _104
REMARK   43  A    between atoms: _104  and  _105
REMARK   44  A    between atoms: _108  and  _110
REMARK   45  A    between atoms: _110  and  _111
REMARK   46  A    between atoms: _110  and  _113
REMARK   47  A    between atoms: _113  and  _114
REMARK   48  A    between atoms: _114  and  _115
REMARK   49  A    between atoms: _120  and  _122
REMARK   50  A    between atoms: _122  and  _123
REMARK   51  A    between atoms: _122  and  _125
REMARK   52  A    between atoms: _125  and  _126
REMARK   53  A    between atoms: _126  and  _127
REMARK   54  A    between atoms: _130  and  _132
REMARK   55  A    between atoms: _132  and  _133
REMARK   56  A    between atoms: _132  and  _135
REMARK   57  A    between atoms: _135  and  _136
REMARK   58  A    between atoms: _136  and  _137
REMARK   59  A    between atoms: _137  and  _138
REMARK   60  A    between atoms: _138  and  _139
REMARK   61  A    between atoms: _143  and  _145
REMARK   62  A    between atoms: _145  and  _146
REMARK   63  A    between atoms: _145  and  _148
REMARK   64  A    between atoms: _148  and  _149
REMARK   65  A    between atoms: _152  and  _154
REMARK   66  A    between atoms: _154  and  _155
REMARK   67  A    between atoms: _154  and  _157
REMARK   68  A    between atoms: _157  and  _158
REMARK   69  A    between atoms: _163  and  _165
REMARK   70  A    between atoms: _165  and  _166
REMARK   71  A    between atoms: _165  and  _168
REMARK   72  A    between atoms: _168  and  _169
REMARK   73  A    between atoms: _172  and  _174
REMARK   74  A    between atoms: _174  and  _175
REMARK   75  A    between atoms: _174  and  _177
REMARK   76  A    between atoms: _177  and  _178
REMARK   77  A    between atoms: _181  and  _183
REMARK   78  A    between atoms: _183  and  _184
REMARK   79  A    between atoms: _183  and  _186
REMARK   80  A    between atoms: _186  and  _187
REMARK   81  A    between atoms: _187  and  _188
REMARK   82  A    between atoms: _188  and  _189
REMARK   83  A    between atoms: _189  and  _190
REMARK   84  A    between atoms: _194  and  _196
REMARK   85  A    between atoms: _196  and  _197
REMARK   86  A    between atoms: _196  and  _199
REMARK   87  A    between atoms: _199  and  _200
REMARK   88  A    between atoms: _203  and  _205
REMARK   89  A    between atoms: _205  and  _206
REMARK   90  A    between atoms: _205  and  _208
REMARK   91  A    between atoms: _208  and  _209
REMARK   92  A    between atoms: _212  and  _214
REMARK   93  A    between atoms: _214  and  _215
REMARK   94  A    between atoms: _214  and  _217
REMARK   95  A    between atoms: _217  and  _218
REMARK   96  A    between atoms: _220  and  _222
REMARK   97  A    between atoms: _222  and  _223
REMARK   98  A    between atoms: _222  and  _225
REMARK   99  A    between atoms: _225  and  _226
REMARK  100  A    between atoms: _226  and  _227
REMARK  101  A    between atoms: _230  and  _232
REMARK  102  A    between atoms: _232  and  _233
REMARK  103  A    between atoms: _232  and  _235
REMARK  104  A    between atoms: _235  and  _236
REMARK  105  A    between atoms: _239  and  _241
REMARK  106  A    between atoms: _241  and  _242
REMARK  107  A    between atoms: _241  and  _244
REMARK  108  A    between atoms: _248  and  _249
REMARK  109  A    between atoms: _254  and  _256
REMARK  110  A    between atoms: _256  and  _257
REMARK  111  A    between atoms: _256  and  _259
REMARK  112  A    between atoms: _259  and  _260
REMARK  113  A    between atoms: _263  and  _265
REMARK  114  A    between atoms: _265  and  _266
REMARK  115  A    between atoms: _269  and  _271
REMARK  116  A    between atoms: _271  and  _272
REMARK  117  A    between atoms: _271  and  _274
REMARK  118  A    between atoms: _274  and  _275
REMARK  119  A    between atoms: _278  and  _280
REMARK  120  A    between atoms: _280  and  _281
REMARK  121  A    between atoms: _284  and  _286
REMARK  122  A    between atoms: _286  and  _287
REMARK  123  A    between atoms: _286  and  _289
REMARK  124  A    between atoms: _292  and  _294
REMARK  125  A    between atoms: _294  and  _295
REMARK  126  A    between atoms: _294  and  _297
REMARK  127  A    between atoms: _297  and  _298
REMARK  128  A    between atoms: _298  and  _299
REMARK  129  A    between atoms: _302  and  _304
REMARK  130  A    between atoms: _304  and  _305
REMARK  131  A    between atoms: _304  and  _307
REMARK  132  A    between atoms: _307  and  _308
REMARK  133  A    between atoms: _308  and  _309
REMARK  134  A    between atoms: _309  and  _310
REMARK  135  A    between atoms: _319  and  _321
REMARK  136  A    between atoms: _321  and  _322
REMARK  137  A    between atoms: _321  and  _324
REMARK  138  A    between atoms: _324  and  _325
REMARK  139  A    between atoms: _331  and  _333
REMARK  140  A    between atoms: _333  and  _334
REMARK  141  A    between atoms: _333  and  _336
REMARK  142  A    between atoms: _336  and  _337
REMARK  143  A    between atoms: _340  and  _342
REMARK  144  A    between atoms: _342  and  _343
REMARK  145  A    between atoms: _342  and  _345
REMARK  146  A    between atoms: _345  and  _346
REMARK  147  A    between atoms: _346  and  _347
REMARK  148  A    between atoms: _347  and  _348
REMARK  149  A    between atoms: _357  and  _359
REMARK  150  A    between atoms: _359  and  _360
REMARK  151  A    between atoms: _359  and  _362
REMARK  152  A    between atoms: _362  and  _363
REMARK  153  A    between atoms: _366  and  _368
REMARK  154  A    between atoms: _368  and  _369
REMARK  155  A    between atoms: _368  and  _371
REMARK  156  A    between atoms: _371  and  _372
REMARK  157  A    between atoms: _372  and  _373
REMARK  158  A    between atoms: _378  and  _380
REMARK  159  A    between atoms: _380  and  _381
REMARK  160  A    between atoms: _380  and  _383
REMARK  161  A    between atoms: _383  and  _384
REMARK  162  A    between atoms: _384  and  _385
REMARK  163  A    between atoms: _388  and  _390
REMARK  164  A    between atoms: _390  and  _391
REMARK  165  A    between atoms: _390  and  _393
REMARK  166  A    between atoms: _393  and  _394
REMARK  167  A    between atoms: _397  and  _399
REMARK  168  A    between atoms: _399  and  _400
REMARK  169  A    between atoms: _399  and  _402
REMARK  170  A    between atoms: _402  and  _403
REMARK  171  A    between atoms: _403  and  _404
REMARK  172  A    between atoms: _406  and  _408
REMARK  173  A    between atoms: _408  and  _409
REMARK  174  A    between atoms: _408  and  _411
REMARK  175  A    between atoms: _413  and  _415
REMARK  176  A    between atoms: _415  and  _416
REMARK  177  A    between atoms: _415  and  _418
REMARK  178  A    between atoms: _418  and  _419
REMARK  179  A    between atoms: _419  and  _420
REMARK  180  A    between atoms: _425  and  _427
REMARK  181  A    between atoms: _427  and  _428
REMARK  182  A    between atoms: _427  and  _430
REMARK  183  A    between atoms: _430  and  _431
REMARK  184  A    between atoms: _431  and  _432
REMARK  185  A    between atoms: _432  and  _433
REMARK  186  A    between atoms: _433  and  _434
REMARK  187  A    between atoms: _438  and  _440
REMARK  188  A    between atoms: _440  and  _441
REMARK  189  A    between atoms: _440  and  _443
REMARK  190  A    between atoms: _443  and  _444
REMARK  191  A    between atoms: _449  and  _450
REMARK  192  A    between atoms: _452  and  _454
REMARK  193  A    between atoms: _454  and  _455
REMARK  194  A    between atoms: _454  and  _457
REMARK  195  A    between atoms: _457  and  _458
REMARK  196  A    between atoms: _458  and  _459
REMARK  197  A    between atoms: _464  and  _466
REMARK  198  A    between atoms: _466  and  _467
REMARK  199  A    between atoms: _469  and  _471
REMARK  200  A    between atoms: _471  and  _472
REMARK  201  A    between atoms: _471  and  _474
REMARK  202  A    between atoms: _474  and  _475
REMARK  203  A    between atoms: _480  and  _482
REMARK  204  A    between atoms: _482  and  _483
REMARK  205  A    between atoms: _486  and  _488
REMARK  206  A    between atoms: _488  and  _489
REMARK  207  A    between atoms: _488  and  _491
REMARK  208  A    between atoms: _491  and  _492
REMARK  209  A    between atoms: _492  and  _493
REMARK  210  A    between atoms: _493  and  _494
REMARK  211  A    between atoms: _494  and  _495
REMARK  212  A    between atoms: _499  and  _501
REMARK  213  A    between atoms: _501  and  _502
REMARK  214  A    between atoms: _501  and  _504
REMARK  215  A    between atoms: _504  and  _505
REMARK  216  A    between atoms: _505  and  _506
REMARK  217  A    between atoms: _505  and  _507
REMARK  218  A    between atoms: _506  and  MG_619
REMARK  219  A    between atoms: _510  and  _512
REMARK  220  A    between atoms: _512  and  _513
REMARK  221  A    between atoms: _512  and  _515
REMARK  222  A    between atoms: _515  and  _516
REMARK  223  A    between atoms: _522  and  _524
REMARK  224  A    between atoms: _524  and  _525
REMARK  225  A    between atoms: _524  and  _527
REMARK  226  A    between atoms: _527  and  _528
REMARK  227  A    between atoms: _530  and  _532
REMARK  228  A    between atoms: _532  and  _533
REMARK  229  A    between atoms: _532  and  _535
REMARK  230  A    between atoms: _538  and  _540
REMARK  231  A    between atoms: _540  and  _541
REMARK  232  A    between atoms: _540  and  _543
REMARK  233  A    between atoms: _543  and  _544
REMARK  234  A    between atoms: _550  and  _552
REMARK  235  A    between atoms: _552  and  _553
REMARK  236  A    between atoms: _552  and  _555
REMARK  237  A    between atoms: _555  and  _556
REMARK  238  A    between atoms: _560  and  _561
REMARK  239  A    between atoms: _566  and  _568
REMARK  240  A    between atoms: _568  and  _569
REMARK  241  A    between atoms: _568  and  _571
REMARK  242  A    between atoms: _571  and  _572
REMARK  243  A    between atoms: _578  and  _580
REMARK  244  A    between atoms: _580  and  _581
REMARK  245  A    between atoms: _580  and  _583
REMARK  246  A    between atoms: _583  and  _584
REMARK  247  A    between atoms: _589  and  _590
REMARK  248  A    between atoms: _592  and  _594
REMARK  249  A    between atoms: _594  and  _595
REMARK  250  A    between atoms: _594  and  _597
REMARK  251  A    between atoms: _597  and  _598
REMARK  252  A    between atoms: _598  and  _599
REMARK  253  A    between atoms: _601  and  _603
REMARK  254  A    between atoms: _603  and  _604
REMARK  255  A    between atoms: _603  and  _606
REMARK  256  A    between atoms: _606  and  _607
REMARK  257  A    between atoms: _610  and  _612
REMARK  258  A    between atoms: _612  and  _613
REMARK  259  A    between atoms: _612  and  _615
REMARK  260  A    between atoms: _615  and  _616
REMARK                            x       y       z     vdW  Elec       q    Type
REMARK                         _______ _______ _______ _____ _____    ______ ____
ROOT
ATOM      1  O   HOH     1      -1.908   4.338  66.437  0.00  0.00    +0.000 OA
ENDROOT
TORSDOF 0
REMARK  Name = ../refined-set-2016/3dnt/3dnt_pocket.pdb
REMARK  260 active torsions:
REMARK  status: ('A' for Active; 'I' for Inactive)
REMARK    1  A    between atoms: _1  and  _3
REMARK    2  A    between atoms: _3  and  _4
REMARK    3  A    between atoms: _3  and  _6
REMARK    4  A    between atoms: _6  and  _7
REMARK    5  A    between atoms: _12  and  _14
REMARK    6  A    between atoms: _14  and  _15
REMARK    7  A    between atoms: _14  and  _17
REMARK    8  A    between atoms: _17  and  _18
REMARK    9  A    between atoms: _21  and  _23
REMARK   10  A    between atoms: _23  and  _24
REMARK   11  A    between atoms: _23  and  _26
REMARK   12  A    between atoms: _26  and  _27
REMARK   13  A    between atoms: _31  and  _32
REMARK   14  A    between atoms: _37  and  _39
REMARK   15  A    between atoms: _39  and  _40
REMARK   16  A    between atoms: _39  and  _42
REMARK   17  A    between atoms: _42  and  _43
REMARK   18  A    between atoms: _46  and  _48
REMARK   19  A    between atoms: _48  and  _49
REMARK   20  A    between atoms: _48  and  _51
REMARK   21  A    between atoms: _51  and  _52
REMARK   22  A    between atoms: _54  and  _56
REMARK   23  A    between atoms: _56  and  _57
REMARK   24  A    between atoms: _56  and  _59
REMARK   25  A    between atoms: _59  and  _60
REMARK   26  A    between atoms: _62  and  _64
REMARK   27  A    between atoms: _64  and  _65
REMARK   28  A    between atoms: _64  and  _67
REMARK   29  A    between atoms: _70  and  _72
REMARK   30  A    between atoms: _72  and  _73
REMARK   31  A    between atoms: _75  and  _77
REMARK   32  A    between atoms: _77  and  _78
REMARK   33  A    between atoms: _77  and  _80
REMARK   34  A    between atoms: _80  and  _81
REMARK   35  A    between atoms: _83  and  _85
REMARK   36  A    between atoms: _85  and  _86
REMARK   37  A    between atoms: _85  and  _88
REMARK   38  A    between atoms: _91  and  _93
REMARK   39  A    between atoms: _93  and  _94
REMARK   40  A    between atoms: _97  and  _99
REMARK   41  A    between atoms: _99  and  _100
REMARK   42  A    between atoms: _102  and  _104
REMARK   43  A    between atoms: _104  and  _105
REMARK   44  A    between atoms: _108  and  _110
REMARK   45  A    between atoms: _110  and  _111
REMARK   46  A    between atoms: _110  and  _113
REMARK   47  A    between atoms: _113  and  _114
REMARK   48  A    between atoms: _114  and  _115
REMARK   49  A    between atoms: _120  and  _122
REMARK   50  A    between atoms: _122  and  _123
REMARK   51  A    between atoms: _122  and  _125
REMARK   52  A    between atoms: _125  and  _126
REMARK   53  A    between atoms: _126  and  _127
REMARK   54  A    between atoms: _130  and  _132
REMARK   55  A    between atoms: _132  and  _133
REMARK   56  A    between atoms: _132  and  _135
REMARK   57  A    between atoms: _135  and  _136
REMARK   58  A    between atoms: _136  and  _137
REMARK   59  A    between atoms: _137  and  _138
REMARK   60  A    between atoms: _138  and  _139
REMARK   61  A    between atoms: _143  and  _145
REMARK   62  A    between atoms: _145  and  _146
REMARK   63  A    between atoms: _145  and  _148
REMARK   64  A    between atoms: _148  and  _149
REMARK   65  A    between atoms: _152  and  _154
REMARK   66  A    between atoms: _154  and  _155
REMARK   67  A    between atoms: _154  and  _157
REMARK   68  A    between atoms: _157  and  _158
REMARK   69  A    between atoms: _163  and  _165
REMARK   70  A    between atoms: _165  and  _166
REMARK   71  A    between atoms: _165  and  _168
REMARK   72  A    between atoms: _168  and  _169
REMARK   73  A    between atoms: _172  and  _174
REMARK   74  A    between atoms: _174  and  _175
REMARK   75  A    between atoms: _174  and  _177
REMARK   76  A    between atoms: _177  and  _178
REMARK   77  A    between atoms: _181  and  _183
REMARK   78  A    between atoms: _183  and  _184
REMARK   79  A    between atoms: _183  and  _186
REMARK   80  A    between atoms: _186  and  _187
REMARK   81  A    between atoms: _187  and  _188
REMARK   82  A    between atoms: _188  and  _189
REMARK   83  A    between atoms: _189  and  _190
REMARK   84  A    between atoms: _194  and  _196
REMARK   85  A    between atoms: _196  and  _197
REMARK   86  A    between atoms: _196  and  _199
REMARK   87  A    between atoms: _199  and  _200
REMARK   88  A    between atoms: _203  and  _205
REMARK   89  A    between atoms: _205  and  _206
REMARK   90  A    between atoms: _205  and  _208
REMARK   91  A    between atoms: _208  and  _209
REMARK   92  A    between atoms: _212  and  _214
REMARK   93  A    between atoms: _214  and  _215
REMARK   94  A    between atoms: _214  and  _217
REMARK   95  A    between atoms: _217  and  _218
REMARK   96  A    between atoms: _220  and  _222
REMARK   97  A    between atoms: _222  and  _223
REMARK   98  A    between atoms: _222  and  _225
REMARK   99  A    between atoms: _225  and  _226
REMARK  100  A    between atoms: _226  and  _227
REMARK  101  A    between atoms: _230  and  _232
REMARK  102  A    between atoms: _232  and  _233
REMARK  103  A    between atoms: _232  and  _235
REMARK  104  A    between atoms: _235  and  _236
REMARK  105  A    between atoms: _239  and  _241
REMARK  106  A    between atoms: _241  and  _242
REMARK  107  A    between atoms: _241  and  _244
REMARK  108  A    between atoms: _248  and  _249
REMARK  109  A    between atoms: _254  and  _256
REMARK  110  A    between atoms: _256  and  _257
REMARK  111  A    between atoms: _256  and  _259
REMARK  112  A    between atoms: _259  and  _260
REMARK  113  A    between atoms: _263  and  _265
REMARK  114  A    between atoms: _265  and  _266
REMARK  115  A    between atoms: _269  and  _271
REMARK  116  A    between atoms: _271  and  _272
REMARK  117  A    between atoms: _271  and  _274
REMARK  118  A    between atoms: _274  and  _275
REMARK  119  A    between atoms: _278  and  _280
REMARK  120  A    between atoms: _280  and  _281
REMARK  121  A    between atoms: _284  and  _286
REMARK  122  A    between atoms: _286  and  _287
REMARK  123  A    between atoms: _286  and  _289
REMARK  124  A    between atoms: _292  and  _294
REMARK  125  A    between atoms: _294  and  _295
REMARK  126  A    between atoms: _294  and  _297
REMARK  127  A    between atoms: _297  and  _298
REMARK  128  A    between atoms: _298  and  _299
REMARK  129  A    between atoms: _302  and  _304
REMARK  130  A    between atoms: _304  and  _305
REMARK  131  A    between atoms: _304  and  _307
REMARK  132  A    between atoms: _307  and  _308
REMARK  133  A    between atoms: _308  and  _309
REMARK  134  A    between atoms: _309  and  _310
REMARK  135  A    between atoms: _319  and  _321
REMARK  136  A    between atoms: _321  and  _322
REMARK  137  A    between atoms: _321  and  _324
REMARK  138  A    between atoms: _324  and  _325
REMARK  139  A    between atoms: _331  and  _333
REMARK  140  A    between atoms: _333  and  _334
REMARK  141  A    between atoms: _333  and  _336
REMARK  142  A    between atoms: _336  and  _337
REMARK  143  A    between atoms: _340  and  _342
REMARK  144  A    between atoms: _342  and  _343
REMARK  145  A    between atoms: _342  and  _345
REMARK  146  A    between atoms: _345  and  _346
REMARK  147  A    between atoms: _346  and  _347
REMARK  148  A    between atoms: _347  and  _348
REMARK  149  A    between atoms: _357  and  _359
REMARK  150  A    between atoms: _359  and  _360
REMARK  151  A    between atoms: _359  and  _362
REMARK  152  A    between atoms: _362  and  _363
REMARK  153  A    between atoms: _366  and  _368
REMARK  154  A    between atoms: _368  and  _369
REMARK  155  A    between atoms: _368  and  _371
REMARK  156  A    between atoms: _371  and  _372
REMARK  157  A    between atoms: _372  and  _373
REMARK  158  A    between atoms: _378  and  _380
REMARK  159  A    between atoms: _380  and  _381
REMARK  160  A    between atoms: _380  and  _383
REMARK  161  A    between atoms: _383  and  _384
REMARK  162  A    between atoms: _384  and  _385
REMARK  163  A    between atoms: _388  and  _390
REMARK  164  A    between atoms: _390  and  _391
REMARK  165  A    between atoms: _390  and  _393
REMARK  166  A    between atoms: _393  and  _394
REMARK  167  A    between atoms: _397  and  _399
REMARK  168  A    between atoms: _399  and  _400
REMARK  169  A    between atoms: _399  and  _402
REMARK  170  A    between atoms: _402  and  _403
REMARK  171  A    between atoms: _403  and  _404
REMARK  172  A    between atoms: _406  and  _408
REMARK  173  A    between atoms: _408  and  _409
REMARK  174  A    between atoms: _408  and  _411
REMARK  175  A    between atoms: _413  and  _415
REMARK  176  A    between atoms: _415  and  _416
REMARK  177  A    between atoms: _415  and  _418
REMARK  178  A    between atoms: _418  and  _419
REMARK  179  A    between atoms: _419  and  _420
REMARK  180  A    between atoms: _425  and  _427
REMARK  181  A    between atoms: _427  and  _428
REMARK  182  A    between atoms: _427  and  _430
REMARK  183  A    between atoms: _430  and  _431
REMARK  184  A    between atoms: _431  and  _432
REMARK  185  A    between atoms: _432  and  _433
REMARK  186  A    between atoms: _433  and  _434
REMARK  187  A    between atoms: _438  and  _440
REMARK  188  A    between atoms: _440  and  _441
REMARK  189  A    between atoms: _440  and  _443
REMARK  190  A    between atoms: _443  and  _444
REMARK  191  A    between atoms: _449  and  _450
REMARK  192  A    between atoms: _452  and  _454
REMARK  193  A    between atoms: _454  and  _455
REMARK  194  A    between atoms: _454  and  _457
REMARK  195  A    between atoms: _457  and  _458
REMARK  196  A    between atoms: _458  and  _459
REMARK  197  A    between atoms: _464  and  _466
REMARK  198  A    between atoms: _466  and  _467
REMARK  199  A    between atoms: _469  and  _471
REMARK  200  A    between atoms: _471  and  _472
REMARK  201  A    between atoms: _471  and  _474
REMARK  202  A    between atoms: _474  and  _475
REMARK  203  A    between atoms: _480  and  _482
REMARK  204  A    between atoms: _482  and  _483
REMARK  205  A    between atoms: _486  and  _488
REMARK  206  A    between atoms: _488  and  _489
REMARK  207  A    between atoms: _488  and  _491
REMARK  208  A    between atoms: _491  and  _492
REMARK  209  A    between atoms: _492  and  _493
REMARK  210  A    between atoms: _493  and  _494
REMARK  211  A    between atoms: _494  and  _495
REMARK  212  A    between atoms: _499  and  _501
REMARK  213  A    between atoms: _501  and  _502
REMARK  214  A    between atoms: _501  and  _504
REMARK  215  A    between atoms: _504  and  _505
REMARK  216  A    between atoms: _505  and  _506
REMARK  217  A    between atoms: _505  and  _507
REMARK  218  A    between atoms: _506  and  MG_619
REMARK  219  A    between atoms: _510  and  _512
REMARK  220  A    between atoms: _512  and  _513
REMARK  221  A    between atoms: _512  and  _515
REMARK  222  A    between atoms: _515  and  _516
REMARK  223  A    between atoms: _522  and  _524
REMARK  224  A    between atoms: _524  and  _525
REMARK  225  A    between atoms: _524  and  _527
REMARK  226  A    between atoms: _527  and  _528
REMARK  227  A    between atoms: _530  and  _532
REMARK  228  A    between atoms: _532  and  _533
REMARK  229  A    between atoms: _532  and  _535
REMARK  230  A    between atoms: _538  and  _540
REMARK  231  A    between atoms: _540  and  _541
REMARK  232  A    between atoms: _540  and  _543
REMARK  233  A    between atoms: _543  and  _544
REMARK  234  A    between atoms: _550  and  _552
REMARK  235  A    between atoms: _552  and  _553
REMARK  236  A    between atoms: _552  and  _555
REMARK  237  A    between atoms: _555  and  _556
REMARK  238  A    between atoms: _560  and  _561
REMARK  239  A    between atoms: _566  and  _568
REMARK  240  A    between atoms: _568  and  _569
REMARK  241  A    between atoms: _568  and  _571
REMARK  242  A    between atoms: _571  and  _572
REMARK  243  A    between atoms: _578  and  _580
REMARK  244  A    between atoms: _580  and  _581
REMARK  245  A    between atoms: _580  and  _583
REMARK  246  A    between atoms: _583  and  _584
REMARK  247  A    between atoms: _589  and  _590
REMARK  248  A    between atoms: _592  and  _594
REMARK  249  A    between atoms: _594  and  _595
REMARK  250  A    between atoms: _594  and  _597
REMARK  251  A    between atoms: _597  and  _598
REMARK  252  A    between atoms: _598  and  _599
REMARK  253  A    between atoms: _601  and  _603
REMARK  254  A    between atoms: _603  and  _604
REMARK  255  A    between atoms: _603  and  _606
REMARK  256  A    between atoms: _606  and  _607
REMARK  257  A    between atoms: _610  and  _612
REMARK  258  A    between atoms: _612  and  _613
REMARK  259  A    between atoms: _612  and  _615
REMARK  260  A    between atoms: _615  and  _616
REMARK                            x       y       z     vdW  Elec       q    Type
REMARK                         _______ _______ _______ _____ _____    ______ ____
ROOT
ATOM      1  O   HOH     1      -5.205   5.210  65.483  0.00  0.00    +0.000 OA
ENDROOT
TORSDOF 0
REMARK  Name = ../refined-set-2016/3dnt/3dnt_pocket.pdb
REMARK  260 active torsions:
REMARK  status: ('A' for Active; 'I' for Inactive)
REMARK    1  A    between atoms: _1  and  _3
REMARK    2  A    between atoms: _3  and  _4
REMARK    3  A    between atoms: _3  and  _6
REMARK    4  A    between atoms: _6  and  _7
REMARK    5  A    between atoms: _12  and  _14
REMARK    6  A    between atoms: _14  and  _15
REMARK    7  A    between atoms: _14  and  _17
REMARK    8  A    between atoms: _17  and  _18
REMARK    9  A    between atoms: _21  and  _23
REMARK   10  A    between atoms: _23  and  _24
REMARK   11  A    between atoms: _23  and  _26
REMARK   12  A    between atoms: _26  and  _27
REMARK   13  A    between atoms: _31  and  _32
REMARK   14  A    between atoms: _37  and  _39
REMARK   15  A    between atoms: _39  and  _40
REMARK   16  A    between atoms: _39  and  _42
REMARK   17  A    between atoms: _42  and  _43
REMARK   18  A    between atoms: _46  and  _48
REMARK   19  A    between atoms: _48  and  _49
REMARK   20  A    between atoms: _48  and  _51
REMARK   21  A    between atoms: _51  and  _52
REMARK   22  A    between atoms: _54  and  _56
REMARK   23  A    between atoms: _56  and  _57
REMARK   24  A    between atoms: _56  and  _59
REMARK   25  A    between atoms: _59  and  _60
REMARK   26  A    between atoms: _62  and  _64
REMARK   27  A    between atoms: _64  and  _65
REMARK   28  A    between atoms: _64  and  _67
REMARK   29  A    between atoms: _70  and  _72
REMARK   30  A    between atoms: _72  and  _73
REMARK   31  A    between atoms: _75  and  _77
REMARK   32  A    between atoms: _77  and  _78
REMARK   33  A    between atoms: _77  and  _80
REMARK   34  A    between atoms: _80  and  _81
REMARK   35  A    between atoms: _83  and  _85
REMARK   36  A    between atoms: _85  and  _86
REMARK   37  A    between atoms: _85  and  _88
REMARK   38  A    between atoms: _91  and  _93
REMARK   39  A    between atoms: _93  and  _94
REMARK   40  A    between atoms: _97  and  _99
REMARK   41  A    between atoms: _99  and  _100
REMARK   42  A    between atoms: _102  and  _104
REMARK   43  A    between atoms: _104  and  _105
REMARK   44  A    between atoms: _108  and  _110
REMARK   45  A    between atoms: _110  and  _111
REMARK   46  A    between atoms: _110  and  _113
REMARK   47  A    between atoms: _113  and  _114
REMARK   48  A    between atoms: _114  and  _115
REMARK   49  A    between atoms: _120  and  _122
REMARK   50  A    between atoms: _122  and  _123
REMARK   51  A    between atoms: _122  and  _125
REMARK   52  A    between atoms: _125  and  _126
REMARK   53  A    between atoms: _126  and  _127
REMARK   54  A    between atoms: _130  and  _132
REMARK   55  A    between atoms: _132  and  _133
REMARK   56  A    between atoms: _132  and  _135
REMARK   57  A    between atoms: _135  and  _136
REMARK   58  A    between atoms: _136  and  _137
REMARK   59  A    between atoms: _137  and  _138
REMARK   60  A    between atoms: _138  and  _139
REMARK   61  A    between atoms: _143  and  _145
REMARK   62  A    between atoms: _145  and  _146
REMARK   63  A    between atoms: _145  and  _148
REMARK   64  A    between atoms: _148  and  _149
REMARK   65  A    between atoms: _152  and  _154
REMARK   66  A    between atoms: _154  and  _155
REMARK   67  A    between atoms: _154  and  _157
REMARK   68  A    between atoms: _157  and  _158
REMARK   69  A    between atoms: _163  and  _165
REMARK   70  A    between atoms: _165  and  _166
REMARK   71  A    between atoms: _165  and  _168
REMARK   72  A    between atoms: _168  and  _169
REMARK   73  A    between atoms: _172  and  _174
REMARK   74  A    between atoms: _174  and  _175
REMARK   75  A    between atoms: _174  and  _177
REMARK   76  A    between atoms: _177  and  _178
REMARK   77  A    between atoms: _181  and  _183
REMARK   78  A    between atoms: _183  and  _184
REMARK   79  A    between atoms: _183  and  _186
REMARK   80  A    between atoms: _186  and  _187
REMARK   81  A    between atoms: _187  and  _188
REMARK   82  A    between atoms: _188  and  _189
REMARK   83  A    between atoms: _189  and  _190
REMARK   84  A    between atoms: _194  and  _196
REMARK   85  A    between atoms: _196  and  _197
REMARK   86  A    between atoms: _196  and  _199
REMARK   87  A    between atoms: _199  and  _200
REMARK   88  A    between atoms: _203  and  _205
REMARK   89  A    between atoms: _205  and  _206
REMARK   90  A    between atoms: _205  and  _208
REMARK   91  A    between atoms: _208  and  _209
REMARK   92  A    between atoms: _212  and  _214
REMARK   93  A    between atoms: _214  and  _215
REMARK   94  A    between atoms: _214  and  _217
REMARK   95  A    between atoms: _217  and  _218
REMARK   96  A    between atoms: _220  and  _222
REMARK   97  A    between atoms: _222  and  _223
REMARK   98  A    between atoms: _222  and  _225
REMARK   99  A    between atoms: _225  and  _226
REMARK  100  A    between atoms: _226  and  _227
REMARK  101  A    between atoms: _230  and  _232
REMARK  102  A    between atoms: _232  and  _233
REMARK  103  A    between atoms: _232  and  _235
REMARK  104  A    between atoms: _235  and  _236
REMARK  105  A    between atoms: _239  and  _241
REMARK  106  A    between atoms: _241  and  _242
REMARK  107  A    between atoms: _241  and  _244
REMARK  108  A    between atoms: _248  and  _249
REMARK  109  A    between atoms: _254  and  _256
REMARK  110  A    between atoms: _256  and  _257
REMARK  111  A    between atoms: _256  and  _259
REMARK  112  A    between atoms: _259  and  _260
REMARK  113  A    between atoms: _263  and  _265
REMARK  114  A    between atoms: _265  and  _266
REMARK  115  A    between atoms: _269  and  _271
REMARK  116  A    between atoms: _271  and  _272
REMARK  117  A    between atoms: _271  and  _274
REMARK  118  A    between atoms: _274  and  _275
REMARK  119  A    between atoms: _278  and  _280
REMARK  120  A    between atoms: _280  and  _281
REMARK  121  A    between atoms: _284  and  _286
REMARK  122  A    between atoms: _286  and  _287
REMARK  123  A    between atoms: _286  and  _289
REMARK  124  A    between atoms: _292  and  _294
REMARK  125  A    between atoms: _294  and  _295
REMARK  126  A    between atoms: _294  and  _297
REMARK  127  A    between atoms: _297  and  _298
REMARK  128  A    between atoms: _298  and  _299
REMARK  129  A    between atoms: _302  and  _304
REMARK  130  A    between atoms: _304  and  _305
REMARK  131  A    between atoms: _304  and  _307
REMARK  132  A    between atoms: _307  and  _308
REMARK  133  A    between atoms: _308  and  _309
REMARK  134  A    between atoms: _309  and  _310
REMARK  135  A    between atoms: _319  and  _321
REMARK  136  A    between atoms: _321  and  _322
REMARK  137  A    between atoms: _321  and  _324
REMARK  138  A    between atoms: _324  and  _325
REMARK  139  A    between atoms: _331  and  _333
REMARK  140  A    between atoms: _333  and  _334
REMARK  141  A    between atoms: _333  and  _336
REMARK  142  A    between atoms: _336  and  _337
REMARK  143  A    between atoms: _340  and  _342
REMARK  144  A    between atoms: _342  and  _343
REMARK  145  A    between atoms: _342  and  _345
REMARK  146  A    between atoms: _345  and  _346
REMARK  147  A    between atoms: _346  and  _347
REMARK  148  A    between atoms: _347  and  _348
REMARK  149  A    between atoms: _357  and  _359
REMARK  150  A    between atoms: _359  and  _360
REMARK  151  A    between atoms: _359  and  _362
REMARK  152  A    between atoms: _362  and  _363
REMARK  153  A    between atoms: _366  and  _368
REMARK  154  A    between atoms: _368  and  _369
REMARK  155  A    between atoms: _368  and  _371
REMARK  156  A    between atoms: _371  and  _372
REMARK  157  A    between atoms: _372  and  _373
REMARK  158  A    between atoms: _378  and  _380
REMARK  159  A    between atoms: _380  and  _381
REMARK  160  A    between atoms: _380  and  _383
REMARK  161  A    between atoms: _383  and  _384
REMARK  162  A    between atoms: _384  and  _385
REMARK  163  A    between atoms: _388  and  _390
REMARK  164  A    between atoms: _390  and  _391
REMARK  165  A    between atoms: _390  and  _393
REMARK  166  A    between atoms: _393  and  _394
REMARK  167  A    between atoms: _397  and  _399
REMARK  168  A    between atoms: _399  and  _400
REMARK  169  A    between atoms: _399  and  _402
REMARK  170  A    between atoms: _402  and  _403
REMARK  171  A    between atoms: _403  and  _404
REMARK  172  A    between atoms: _406  and  _408
REMARK  173  A    between atoms: _408  and  _409
REMARK  174  A    between atoms: _408  and  _411
REMARK  175  A    between atoms: _413  and  _415
REMARK  176  A    between atoms: _415  and  _416
REMARK  177  A    between atoms: _415  and  _418
REMARK  178  A    between atoms: _418  and  _419
REMARK  179  A    between atoms: _419  and  _420
REMARK  180  A    between atoms: _425  and  _427
REMARK  181  A    between atoms: _427  and  _428
REMARK  182  A    between atoms: _427  and  _430
REMARK  183  A    between atoms: _430  and  _431
REMARK  184  A    between atoms: _431  and  _432
REMARK  185  A    between atoms: _432  and  _433
REMARK  186  A    between atoms: _433  and  _434
REMARK  187  A    between atoms: _438  and  _440
REMARK  188  A    between atoms: _440  and  _441
REMARK  189  A    between atoms: _440  and  _443
REMARK  190  A    between atoms: _443  and  _444
REMARK  191  A    between atoms: _449  and  _450
REMARK  192  A    between atoms: _452  and  _454
REMARK  193  A    between atoms: _454  and  _455
REMARK  194  A    between atoms: _454  and  _457
REMARK  195  A    between atoms: _457  and  _458
REMARK  196  A    between atoms: _458  and  _459
REMARK  197  A    between atoms: _464  and  _466
REMARK  198  A    between atoms: _466  and  _467
REMARK  199  A    between atoms: _469  and  _471
REMARK  200  A    between atoms: _471  and  _472
REMARK  201  A    between atoms: _471  and  _474
REMARK  202  A    between atoms: _474  and  _475
REMARK  203  A    between atoms: _480  and  _482
REMARK  204  A    between atoms: _482  and  _483
REMARK  205  A    between atoms: _486  and  _488
REMARK  206  A    between atoms: _488  and  _489
REMARK  207  A    between atoms: _488  and  _491
REMARK  208  A    between atoms: _491  and  _492
REMARK  209  A    between atoms: _492  and  _493
REMARK  210  A    between atoms: _493  and  _494
REMARK  211  A    between atoms: _494  and  _495
REMARK  212  A    between atoms: _499  and  _501
REMARK  213  A    between atoms: _501  and  _502
REMARK  214  A    between atoms: _501  and  _504
REMARK  215  A    between atoms: _504  and  _505
REMARK  216  A    between atoms: _505  and  _506
REMARK  217  A    between atoms: _505  and  _507
REMARK  218  A    between atoms: _506  and  MG_619
REMARK  219  A    between atoms: _510  and  _512
REMARK  220  A    between atoms: _512  and  _513
REMARK  221  A    between atoms: _512  and  _515
REMARK  222  A    between atoms: _515  and  _516
REMARK  223  A    between atoms: _522  and  _524
REMARK  224  A    between atoms: _524  and  _525
REMARK  225  A    between atoms: _524  and  _527
REMARK  226  A    between atoms: _527  and  _528
REMARK  227  A    between atoms: _530  and  _532
REMARK  228  A    between atoms: _532  and  _533
REMARK  229  A    between atoms: _532  and  _535
REMARK  230  A    between atoms: _538  and  _540
REMARK  231  A    between atoms: _540  and  _541
REMARK  232  A    between atoms: _540  and  _543
REMARK  233  A    between atoms: _543  and  _544
REMARK  234  A    between atoms: _550  and  _552
REMARK  235  A    between atoms: _552  and  _553
REMARK  236  A    between atoms: _552  and  _555
REMARK  237  A    between atoms: _555  and  _556
REMARK  238  A    between atoms: _560  and  _561
REMARK  239  A    between atoms: _566  and  _568
REMARK  240  A    between atoms: _568  and  _569
REMARK  241  A    between atoms: _568  and  _571
REMARK  242  A    between atoms: _571  and  _572
REMARK  243  A    between atoms: _578  and  _580
REMARK  244  A    between atoms: _580  and  _581
REMARK  245  A    between atoms: _580  and  _583
REMARK  246  A    between atoms: _583  and  _584
REMARK  247  A    between atoms: _589  and  _590
REMARK  248  A    between atoms: _592  and  _594
REMARK  249  A    between atoms: _594  and  _595
REMARK  250  A    between atoms: _594  and  _597
REMARK  251  A    between atoms: _597  and  _598
REMARK  252  A    between atoms: _598  and  _599
REMARK  253  A    between atoms: _601  and  _603
REMARK  254  A    between atoms: _603  and  _604
REMARK  255  A    between atoms: _603  and  _606
REMARK  256  A    between atoms: _606  and  _607
REMARK  257  A    between atoms: _610  and  _612
REMARK  258  A    between atoms: _612  and  _613
REMARK  259  A    between atoms: _612  and  _615
REMARK  260  A    between atoms: _615  and  _616
REMARK                            x       y       z     vdW  Elec       q    Type
REMARK                         _______ _______ _______ _____ _____    ______ ____
ROOT
ATOM      1  O   HOH     1       0.215  15.836  43.827  0.00  0.00    +0.000 OA
ENDROOT
TORSDOF 0
