REMARK  Name = ../refined-set-2016/2ov4/2ov4_pocket.pdb
REMARK  255 active torsions:
REMARK  status: ('A' for Active; 'I' for Inactive)
REMARK    1  A    between atoms: _1  and  _3
REMARK    2  A    between atoms: _3  and  _4
REMARK    3  A    between atoms: _3  and  _6
REMARK    4  A    between atoms: _6  and  _7
REMARK    5  A    between atoms: _13  and  _15
REMARK    6  A    between atoms: _15  and  _16
REMARK    7  A    between atoms: _15  and  _18
REMARK    8  A    between atoms: _18  and  _19
REMARK    9  A    between atoms: _21  and  _23
REMARK   10  A    between atoms: _23  and  _24
REMARK   11  A    between atoms: _26  and  _28
REMARK   12  A    between atoms: _28  and  _29
REMARK   13  A    between atoms: _28  and  _31
REMARK   14  A    between atoms: _31  and  _32
REMARK   15  A    between atoms: _35  and  _37
REMARK   16  A    between atoms: _37  and  _38
REMARK   17  A    between atoms: _37  and  _40
REMARK   18  A    between atoms: _40  and  _41
REMARK   19  A    between atoms: _41  and  _42
REMARK   20  A    between atoms: _48  and  _49
REMARK   21  A    between atoms: _54  and  _56
REMARK   22  A    between atoms: _56  and  _57
REMARK   23  A    between atoms: _56  and  _59
REMARK   24  A    between atoms: _59  and  _60
REMARK   25  A    between atoms: _62  and  _64
REMARK   26  A    between atoms: _64  and  _65
REMARK   27  A    between atoms: _67  and  _69
REMARK   28  A    between atoms: _69  and  _70
REMARK   29  A    between atoms: _69  and  _72
REMARK   30  A    between atoms: _75  and  _77
REMARK   31  A    between atoms: _77  and  _78
REMARK   32  A    between atoms: _77  and  _80
REMARK   33  A    between atoms: _80  and  _81
REMARK   34  A    between atoms: _84  and  _86
REMARK   35  A    between atoms: _86  and  _87
REMARK   36  A    between atoms: _86  and  _89
REMARK   37  A    between atoms: _89  and  _90
REMARK   38  A    between atoms: _93  and  _95
REMARK   39  A    between atoms: _95  and  _96
REMARK   40  A    between atoms: _95  and  _98
REMARK   41  A    between atoms: _98  and  _99
REMARK   42  A    between atoms: _102  and  _104
REMARK   43  A    between atoms: _104  and  _105
REMARK   44  A    between atoms: _107  and  _109
REMARK   45  A    between atoms: _109  and  _110
REMARK   46  A    between atoms: _109  and  _112
REMARK   47  A    between atoms: _112  and  _113
REMARK   48  A    between atoms: _118  and  _120
REMARK   49  A    between atoms: _120  and  _121
REMARK   50  A    between atoms: _120  and  _123
REMARK   51  A    between atoms: _123  and  _124
REMARK   52  A    between atoms: _129  and  _130
REMARK   53  A    between atoms: _132  and  _134
REMARK   54  A    between atoms: _134  and  _135
REMARK   55  A    between atoms: _134  and  _137
REMARK   56  A    between atoms: _137  and  _138
REMARK   57  A    between atoms: _141  and  _143
REMARK   58  A    between atoms: _143  and  _144
REMARK   59  A    between atoms: _146  and  _148
REMARK   60  A    between atoms: _148  and  _149
REMARK   61  A    between atoms: _152  and  _154
REMARK   62  A    between atoms: _154  and  _155
REMARK   63  A    between atoms: _154  and  _157
REMARK   64  A    between atoms: _157  and  _158
REMARK   65  A    between atoms: _161  and  _163
REMARK   66  A    between atoms: _163  and  _164
REMARK   67  A    between atoms: _163  and  _166
REMARK   68  A    between atoms: _166  and  _167
REMARK   69  A    between atoms: _167  and  _168
REMARK   70  A    between atoms: _168  and  _169
REMARK   71  A    between atoms: _178  and  _180
REMARK   72  A    between atoms: _180  and  _181
REMARK   73  A    between atoms: _180  and  _183
REMARK   74  A    between atoms: _183  and  _184
REMARK   75  A    between atoms: _184  and  _185
REMARK   76  A    between atoms: _190  and  _192
REMARK   77  A    between atoms: _192  and  _193
REMARK   78  A    between atoms: _192  and  _195
REMARK   79  A    between atoms: _195  and  _196
REMARK   80  A    between atoms: _202  and  _204
REMARK   81  A    between atoms: _204  and  _205
REMARK   82  A    between atoms: _204  and  _207
REMARK   83  A    between atoms: _209  and  _211
REMARK   84  A    between atoms: _211  and  _212
REMARK   85  A    between atoms: _211  and  _214
REMARK   86  A    between atoms: _214  and  _215
REMARK   87  A    between atoms: _218  and  _220
REMARK   88  A    between atoms: _220  and  _221
REMARK   89  A    between atoms: _220  and  _223
REMARK   90  A    between atoms: _226  and  _228
REMARK   91  A    between atoms: _228  and  _229
REMARK   92  A    between atoms: _228  and  _231
REMARK   93  A    between atoms: _231  and  _232
REMARK   94  A    between atoms: _237  and  _239
REMARK   95  A    between atoms: _239  and  _240
REMARK   96  A    between atoms: _243  and  _245
REMARK   97  A    between atoms: _245  and  _246
REMARK   98  A    between atoms: _245  and  _248
REMARK   99  A    between atoms: _248  and  _249
REMARK  100  A    between atoms: _252  and  _254
REMARK  101  A    between atoms: _254  and  _255
REMARK  102  A    between atoms: _254  and  _257
REMARK  103  A    between atoms: _260  and  _262
REMARK  104  A    between atoms: _262  and  _263
REMARK  105  A    between atoms: _262  and  _265
REMARK  106  A    between atoms: _265  and  _266
REMARK  107  A    between atoms: _266  and  _267
REMARK  108  A    between atoms: _272  and  _274
REMARK  109  A    between atoms: _274  and  _275
REMARK  110  A    between atoms: _274  and  _277
REMARK  111  A    between atoms: _277  and  _278
REMARK  112  A    between atoms: _281  and  _283
REMARK  113  A    between atoms: _283  and  _284
REMARK  114  A    between atoms: _283  and  _286
REMARK  115  A    between atoms: _286  and  _287
REMARK  116  A    between atoms: _292  and  _293
REMARK  117  A    between atoms: _295  and  _297
REMARK  118  A    between atoms: _297  and  _298
REMARK  119  A    between atoms: _297  and  _300
REMARK  120  A    between atoms: _300  and  _301
REMARK  121  A    between atoms: _301  and  _302
REMARK  122  A    between atoms: _307  and  _309
REMARK  123  A    between atoms: _309  and  _310
REMARK  124  A    between atoms: _309  and  _312
REMARK  125  A    between atoms: _312  and  _313
REMARK  126  A    between atoms: _313  and  _314
REMARK  127  A    between atoms: _314  and  _315
REMARK  128  A    between atoms: _315  and  _316
REMARK  129  A    between atoms: _320  and  _322
REMARK  130  A    between atoms: _322  and  _323
REMARK  131  A    between atoms: _322  and  _325
REMARK  132  A    between atoms: _325  and  _326
REMARK  133  A    between atoms: _331  and  _332
REMARK  134  A    between atoms: _334  and  _336
REMARK  135  A    between atoms: _336  and  _337
REMARK  136  A    between atoms: _336  and  _339
REMARK  137  A    between atoms: _339  and  _340
REMARK  138  A    between atoms: _340  and  _341
REMARK  139  A    between atoms: _343  and  _345
REMARK  140  A    between atoms: _345  and  _346
REMARK  141  A    between atoms: _345  and  _348
REMARK  142  A    between atoms: _352  and  _353
REMARK  143  A    between atoms: _358  and  _360
REMARK  144  A    between atoms: _360  and  _361
REMARK  145  A    between atoms: _360  and  _363
REMARK  146  A    between atoms: _366  and  _368
REMARK  147  A    between atoms: _368  and  _369
REMARK  148  A    between atoms: _371  and  _373
REMARK  149  A    between atoms: _373  and  _374
REMARK  150  A    between atoms: _373  and  _376
REMARK  151  A    between atoms: _376  and  _377
REMARK  152  A    between atoms: _377  and  _378
REMARK  153  A    between atoms: _381  and  _383
REMARK  154  A    between atoms: _383  and  _384
REMARK  155  A    between atoms: _383  and  _386
REMARK  156  A    between atoms: _386  and  _387
REMARK  157  A    between atoms: _390  and  _392
REMARK  158  A    between atoms: _392  and  _393
REMARK  159  A    between atoms: _392  and  _395
REMARK  160  A    between atoms: _395  and  _396
REMARK  161  A    between atoms: _396  and  _397
REMARK  162  A    between atoms: _402  and  _404
REMARK  163  A    between atoms: _404  and  _405
REMARK  164  A    between atoms: _404  and  _407
REMARK  165  A    between atoms: _407  and  _408
REMARK  166  A    between atoms: _408  and  _409
REMARK  167  A    between atoms: _409  and  _410
REMARK  168  A    between atoms: _410  and  _411
REMARK  169  A    between atoms: _415  and  _417
REMARK  170  A    between atoms: _417  and  _418
REMARK  171  A    between atoms: _417  and  _420
REMARK  172  A    between atoms: _420  and  _421
REMARK  173  A    between atoms: _426  and  _428
REMARK  174  A    between atoms: _428  and  _429
REMARK  175  A    between atoms: _428  and  _431
REMARK  176  A    between atoms: _431  and  _432
REMARK  177  A    between atoms: _435  and  _437
REMARK  178  A    between atoms: _437  and  _438
REMARK  179  A    between atoms: _437  and  _440
REMARK  180  A    between atoms: _440  and  _441
REMARK  181  A    between atoms: _445  and  _446
REMARK  182  A    between atoms: _451  and  _453
REMARK  183  A    between atoms: _453  and  _454
REMARK  184  A    between atoms: _453  and  _456
REMARK  185  A    between atoms: _459  and  _461
REMARK  186  A    between atoms: _461  and  _462
REMARK  187  A    between atoms: _464  and  _466
REMARK  188  A    between atoms: _466  and  _467
REMARK  189  A    between atoms: _470  and  _472
REMARK  190  A    between atoms: _472  and  _473
REMARK  191  A    between atoms: _472  and  _475
REMARK  192  A    between atoms: _475  and  _476
REMARK  193  A    between atoms: _476  and  _477
REMARK  194  A    between atoms: _477  and  _478
REMARK  195  A    between atoms: _487  and  _489
REMARK  196  A    between atoms: _489  and  _490
REMARK  197  A    between atoms: _489  and  _492
REMARK  198  A    between atoms: _492  and  _493
REMARK  199  A    between atoms: _496  and  _498
REMARK  200  A    between atoms: _498  and  _499
REMARK  201  A    between atoms: _498  and  _501
REMARK  202  A    between atoms: _501  and  _502
REMARK  203  A    between atoms: _502  and  _503
REMARK  204  A    between atoms: _505  and  _507
REMARK  205  A    between atoms: _507  and  _508
REMARK  206  A    between atoms: _507  and  _510
REMARK  207  A    between atoms: _510  and  _511
REMARK  208  A    between atoms: _513  and  _515
REMARK  209  A    between atoms: _515  and  _516
REMARK  210  A    between atoms: _515  and  _518
REMARK  211  A    between atoms: _518  and  _519
REMARK  212  A    between atoms: _519  and  _520
REMARK  213  A    between atoms: _520  and  _521
REMARK  214  A    between atoms: _521  and  _522
REMARK  215  A    between atoms: _526  and  _528
REMARK  216  A    between atoms: _528  and  _529
REMARK  217  A    between atoms: _528  and  _531
REMARK  218  A    between atoms: _531  and  _532
REMARK  219  A    between atoms: _532  and  _533
REMARK  220  A    between atoms: _533  and  _534
REMARK  221  A    between atoms: _534  and  _535
REMARK  222  A    between atoms: _539  and  _541
REMARK  223  A    between atoms: _541  and  _542
REMARK  224  A    between atoms: _541  and  _544
REMARK  225  A    between atoms: _544  and  _545
REMARK  226  A    between atoms: _545  and  _546
REMARK  227  A    between atoms: _548  and  _550
REMARK  228  A    between atoms: _550  and  _551
REMARK  229  A    between atoms: _550  and  _553
REMARK  230  A    between atoms: _553  and  _554
REMARK  231  A    between atoms: _556  and  _558
REMARK  232  A    between atoms: _558  and  _559
REMARK  233  A    between atoms: _558  and  _561
REMARK  234  A    between atoms: _561  and  _562
REMARK  235  A    between atoms: _562  and  _563
REMARK  236  A    between atoms: _563  and  _564
REMARK  237  A    between atoms: _564  and  _565
REMARK  238  A    between atoms: _569  and  _571
REMARK  239  A    between atoms: _571  and  _572
REMARK  240  A    between atoms: _571  and  _574
REMARK  241  A    between atoms: _574  and  _575
REMARK  242  A    between atoms: _577  and  _579
REMARK  243  A    between atoms: _579  and  _580
REMARK  244  A    between atoms: _579  and  _582
REMARK  245  A    between atoms: _582  and  _583
REMARK  246  A    between atoms: _587  and  _588
REMARK  247  A    between atoms: _593  and  _595
REMARK  248  A    between atoms: _595  and  _596
REMARK  249  A    between atoms: _595  and  _598
REMARK  250  A    between atoms: _598  and  _599
REMARK  251  A    between atoms: _604  and  _605
REMARK  252  A    between atoms: _607  and  _609
REMARK  253  A    between atoms: _609  and  _610
REMARK  254  A    between atoms: _609  and  _612
REMARK  255  A    between atoms: _612  and  _613
REMARK                            x       y       z     vdW  Elec       q    Type
REMARK                         _______ _______ _______ _____ _____    ______ ____
ROOT
ATOM      1  C   ILE A  12      55.124  25.944  27.495  0.00  0.00    +0.241 C 
ATOM      2  N   GLY A  13      54.030  26.016  28.251  0.00  0.00    -0.295 N 
ATOM      3  H   GLY A  13      53.238  25.372  28.052  0.00  0.00    +0.150 HD
ATOM      4  O   ILE A  12      56.120  26.632  27.699  0.00  0.00    -0.273 OA
ENDROOT
BRANCH   2   5
ATOM      5  CA  GLY A  13      53.905  26.970  29.351  0.00  0.00    +0.176 C 
BRANCH   5   6
ATOM      6  C   GLY A  13      54.681  26.446  30.550  0.00  0.00    +0.243 C 
ATOM      7  O   GLY A  13      55.480  27.163  31.124  0.00  0.00    -0.273 OA
ATOM      8  N   ASN A  14      54.511  25.167  30.873  0.00  0.00    -0.297 N 
ATOM      9  H   ASN A  14      53.841  24.585  30.331  0.00  0.00    +0.150 HD
BRANCH   8  10
ATOM     10  CA  ASN A  14      55.255  24.569  31.982  0.00  0.00    +0.158 C 
BRANCH  10  11
ATOM     11  C   ASN A  14      56.751  24.540  31.640  0.00  0.00    +0.241 C 
ATOM     12  O   ASN A  14      57.591  24.552  32.530  0.00  0.00    -0.273 OA
ATOM     13  N   TYR A  15      57.053  24.408  30.357  0.00  0.00    -0.297 N 
ATOM     14  H   TYR A  15      56.269  24.347  29.677  0.00  0.00    +0.150 HD
BRANCH  13  15
ATOM     15  CA  TYR A  15      58.408  24.343  29.838  0.00  0.00    +0.153 C 
BRANCH  15  16
ATOM     16  C   TYR A  15      59.149  25.681  29.917  0.00  0.00    +0.241 C 
ATOM     17  O   TYR A  15      60.263  25.760  30.420  0.00  0.00    -0.273 OA
ATOM     18  N   ILE A  16      58.527  26.733  29.392  0.00  0.00    -0.297 N 
ATOM     19  H   ILE A  16      57.593  26.597  28.955  0.00  0.00    +0.150 HD
BRANCH  18  20
ATOM     20  CA  ILE A  16      59.109  28.069  29.408  0.00  0.00    +0.149 C 
BRANCH  20  21
ATOM     21  C   ILE A  16      59.216  28.642  30.826  0.00  0.00    +0.241 C 
ATOM     22  N   GLY A  17      58.212  28.406  31.664  0.00  0.00    -0.295 N 
ATOM     23  H   GLY A  17      57.440  27.778  31.362  0.00  0.00    +0.150 HD
ATOM     24  O   ILE A  16      60.152  29.358  31.131  0.00  0.00    -0.273 OA
BRANCH  22  25
ATOM     25  CA  GLY A  17      58.160  29.004  33.002  0.00  0.00    +0.176 C 
BRANCH  25  26
ATOM     26  C   GLY A  17      58.926  28.267  34.098  0.00  0.00    +0.243 C 
ATOM     27  O   GLY A  17      59.211  28.833  35.162  0.00  0.00    -0.273 OA
ATOM     28  N   ALA A  18      59.063  26.960  33.927  0.00  0.00    -0.297 N 
ATOM     29  H   ALA A  18      58.610  26.484  33.121  0.00  0.00    +0.150 HD
BRANCH  28  30
ATOM     30  CA  ALA A  18      59.860  26.195  34.888  0.00  0.00    +0.149 C 
ATOM     31  CB  ALA A  18      58.958  25.629  35.986  0.00  0.00    +0.031 C 
BRANCH  30  32
ATOM     32  C   ALA A  18      60.840  25.140  34.351  0.00  0.00    +0.241 C 
ATOM     33  O   ALA A  18      62.044  25.275  34.509  0.00  0.00    -0.273 OA
ATOM     34  N   LEU A  19      60.454  24.061  33.847  0.00  0.00    -0.297 N 
ATOM     35  H   LEU A  19      59.425  23.924  33.779  0.00  0.00    +0.150 HD
BRANCH  34  36
ATOM     36  CA  LEU A  19      61.288  22.972  33.343  0.00  0.00    +0.149 C 
BRANCH  36  37
ATOM     37  C   LEU A  19      62.524  23.432  32.523  0.00  0.00    +0.241 C 
ATOM     38  O   LEU A  19      63.625  22.901  32.680  0.00  0.00    -0.273 OA
ATOM     39  N   ARG A  20      62.359  24.438  31.671  0.00  0.00    -0.297 N 
ATOM     40  H   ARG A  20      61.437  24.913  31.598  0.00  0.00    +0.150 HD
BRANCH  39  41
ATOM     41  CA  ARG A  20      63.471  24.873  30.841  0.00  0.00    +0.149 C 
BRANCH  41  42
ATOM     42  C   ARG A  20      64.685  25.318  31.669  0.00  0.00    +0.241 C 
ATOM     43  N   GLN A  21      64.414  25.957  32.800  0.00  0.00    -0.297 N 
ATOM     44  H   GLN A  21      63.422  26.078  33.086  0.00  0.00    +0.150 HD
ATOM     45  O   ARG A  20      65.836  25.120  31.272  0.00  0.00    -0.273 OA
BRANCH  43  46
ATOM     46  CA  GLN A  21      65.461  26.491  33.648  0.00  0.00    +0.149 C 
BRANCH  46  47
ATOM     47  C   GLN A  21      66.060  25.408  34.551  0.00  0.00    +0.241 C 
ATOM     48  O   GLN A  21      67.203  25.519  35.025  0.00  0.00    -0.273 OA
ATOM     49  N   PHE A  22      65.319  24.320  34.712  0.00  0.00    -0.298 N 
ATOM     50  H   PHE A  22      64.368  24.289  34.292  0.00  0.00    +0.150 HD
BRANCH  49  51
ATOM     51  CA  PHE A  22      65.799  23.169  35.459  0.00  0.00    +0.141 C 
BRANCH  51  52
ATOM     52  C   PHE A  22      67.107  22.628  34.825  0.00  0.00    +0.227 C 
ATOM     53  O   PHE A  22      68.059  22.257  35.536  0.00  0.00    -0.286 OA
ENDBRANCH  51  52
BRANCH  51  54
ATOM     54  CB  PHE A  22      64.737  22.077  35.448  0.00  0.00    +0.054 C 
BRANCH  54  55
ATOM     55  CG  PHE A  22      63.507  22.406  36.250  0.00  0.00    -0.020 A 
ATOM     56  CD2 PHE A  22      63.310  23.677  36.755  0.00  0.00    -0.004 A 
ATOM     57  CE2 PHE A  22      62.183  23.978  37.472  0.00  0.00    -0.000 A 
ATOM     58  CZ  PHE A  22      61.247  22.989  37.723  0.00  0.00    -0.000 A 
ATOM     59  CE1 PHE A  22      61.414  21.713  37.217  0.00  0.00    -0.000 A 
ATOM     60  CD1 PHE A  22      62.537  21.426  36.488  0.00  0.00    -0.004 A 
ENDBRANCH  54  55
ENDBRANCH  51  54
ENDBRANCH  49  51
ENDBRANCH  46  47
BRANCH  46  61
ATOM     61  CB  GLN A  21      64.900  27.646  34.468  0.00  0.00    +0.039 C 
BRANCH  61  62
ATOM     62  CG  GLN A  21      64.631  28.952  33.658  0.00  0.00    +0.087 C 
BRANCH  62  63
ATOM     63  CD  GLN A  21      63.592  28.793  32.538  0.00  0.00    +0.219 C 
ATOM     64  NE2 GLN A  21      62.324  28.802  32.924  0.00  0.00    -0.329 N 
ATOM     65 HE21 GLN A  21      62.089  28.866  33.935  0.00  0.00    +0.145 HD
ATOM     66 HE22 GLN A  21      61.564  28.745  32.216  0.00  0.00    +0.145 HD
ATOM     67  OE1 GLN A  21      63.931  28.717  31.333  0.00  0.00    -0.275 OA
ENDBRANCH  62  63
ENDBRANCH  61  62
ENDBRANCH  46  61
ENDBRANCH  43  46
ENDBRANCH  41  42
BRANCH  41  68
ATOM     68  CB  ARG A  20      63.036  25.982  29.869  0.00  0.00    +0.033 C 
BRANCH  68  69
ATOM     69  CG  ARG A  20      64.158  26.446  28.942  0.00  0.00    +0.045 C 
BRANCH  69  70
ATOM     70  CD  ARG A  20      63.719  27.527  27.966  0.00  0.00    +0.174 C 
BRANCH  70  71
ATOM     71  NE  ARG A  20      63.210  28.742  28.619  0.00  0.00    -0.265 N 
ATOM     72  HE  ARG A  20      63.106  28.740  29.654  0.00  0.00    +0.259 HD
ATOM     73  CZ  ARG A  20      62.874  29.848  27.949  0.00  0.00    +0.342 C 
ATOM     74  NH2 ARG A  20      62.377  30.926  28.577  0.00  0.00    -0.292 N 
ATOM     75 HH21 ARG A  20      62.246  30.912  29.609  0.00  0.00    +0.255 HD
ATOM     76 HH22 ARG A  20      62.123  31.775  28.032  0.00  0.00    +0.255 HD
ATOM     77  NH1 ARG A  20      63.054  29.876  26.628  0.00  0.00    -0.292 N 
ATOM     78 HH11 ARG A  20      63.449  29.047  26.139  0.00  0.00    +0.255 HD
ATOM     79 HH12 ARG A  20      62.799  30.727  26.086  0.00  0.00    +0.255 HD
ENDBRANCH  70  71
ENDBRANCH  69  70
ENDBRANCH  68  69
ENDBRANCH  41  68
ENDBRANCH  39  41
ENDBRANCH  36  37
BRANCH  36  80
ATOM     80  CB  LEU A  19      60.434  22.014  32.534  0.00  0.00    +0.029 C 
BRANCH  80  81
ATOM     81  CG  LEU A  19      60.817  20.541  32.504  0.00  0.00    +0.002 C 
ATOM     82  CD2 LEU A  19      61.983  20.185  33.398  0.00  0.00    +0.000 C 
ATOM     83  CD1 LEU A  19      61.130  20.166  31.112  0.00  0.00    +0.000 C 
ENDBRANCH  80  81
ENDBRANCH  36  80
ENDBRANCH  34  36
ENDBRANCH  30  32
ENDBRANCH  28  30
ENDBRANCH  25  26
ENDBRANCH  22  25
ENDBRANCH  20  21
BRANCH  20  84
ATOM     84  CB  ILE A  16      58.246  29.016  28.561  0.00  0.00    +0.027 C 
ATOM     85  CG2 ILE A  16      58.620  30.480  28.785  0.00  0.00    +0.002 C 
BRANCH  84  86
ATOM     86  CG1 ILE A  16      58.290  28.639  27.083  0.00  0.00    +0.002 C 
ATOM     87  CD1 ILE A  16      57.317  29.429  26.198  0.00  0.00    +0.000 C 
ENDBRANCH  84  86
ENDBRANCH  20  84
ENDBRANCH  18  20
ENDBRANCH  15  16
BRANCH  15  88
ATOM     88  CB  TYR A  15      58.366  23.858  28.397  0.00  0.00    +0.055 C 
BRANCH  88  89
ATOM     89  CG  TYR A  15      59.728  23.777  27.758  0.00  0.00    -0.020 A 
ATOM     90  CD2 TYR A  15      60.710  22.934  28.256  0.00  0.00    -0.001 A 
ATOM     91  CE2 TYR A  15      61.969  22.888  27.670  0.00  0.00    +0.036 A 
ATOM     92  CZ  TYR A  15      62.263  23.704  26.593  0.00  0.00    +0.134 A 
ATOM     93  CE1 TYR A  15      61.312  24.551  26.093  0.00  0.00    +0.036 A 
ATOM     94  CD1 TYR A  15      60.056  24.596  26.682  0.00  0.00    -0.001 A 
BRANCH  92  95
ATOM     95  OH  TYR A  15      63.493  23.662  25.978  0.00  0.00    -0.506 OA
ATOM     96  HH  TYR A  15      64.072  23.010  26.446  0.00  0.00    +0.292 HD
ENDBRANCH  92  95
ENDBRANCH  88  89
ENDBRANCH  15  88
ENDBRANCH  13  15
ENDBRANCH  10  11
BRANCH  10  97
ATOM     97  CB  ASN A  14      54.822  23.116  32.283  0.00  0.00    +0.114 C 
BRANCH  97  98
ATOM     98  CG  ASN A  14      53.328  22.950  32.504  0.00  0.00    +0.222 C 
ATOM     99  ND2 ASN A  14      52.849  23.435  33.645  0.00  0.00    -0.329 N 
ATOM    100 HD21 ASN A  14      53.430  24.077  34.222  0.00  0.00    +0.145 HD
ATOM    101 HD22 ASN A  14      51.894  23.173  33.961  0.00  0.00    +0.145 HD
ATOM    102  OD1 ASN A  14      52.674  22.179  31.778  0.00  0.00    -0.275 OA
ENDBRANCH  97  98
ENDBRANCH  10  97
ENDBRANCH   8  10
ENDBRANCH   5   6
ENDBRANCH   2   5
BRANCH   1 103
ATOM    103  CA  ILE A  12      55.127  24.854  26.417  0.00  0.00    +0.149 C 
BRANCH 103 106
ATOM    104  C   THR A  11      53.938  23.276  27.844  0.00  0.00    +0.243 C 
ATOM    105  O   THR A  11      54.739  23.432  28.748  0.00  0.00    -0.273 OA
ATOM    106  N   ILE A  12      54.027  23.925  26.682  0.00  0.00    -0.297 N 
ATOM    107  H   ILE A  12      53.303  23.768  25.952  0.00  0.00    +0.150 HD
BRANCH 104 108
ATOM    108  CA  THR A  11      52.720  22.400  28.056  0.00  0.00    +0.176 C 
BRANCH 108 110
ATOM    109  C   ILE A  10      53.219  20.235  29.064  0.00  0.00    +0.241 C 
ATOM    110  N   THR A  11      52.898  21.511  29.212  0.00  0.00    -0.295 N 
ATOM    111  H   THR A  11      52.769  21.893  30.170  0.00  0.00    +0.150 HD
ATOM    112  O   ILE A  10      53.377  19.718  27.952  0.00  0.00    -0.273 OA
BRANCH 109 113
ATOM    113  CA  ILE A  10      53.260  19.391  30.363  0.00  0.00    +0.149 C 
BRANCH 113 115
ATOM    114  C   VAL A   9      51.541  17.771  29.707  0.00  0.00    +0.241 C 
ATOM    115  N   ILE A  10      52.759  18.012  30.206  0.00  0.00    -0.297 N 
ATOM    116  H   ILE A  10      53.363  17.214  30.488  0.00  0.00    +0.150 HD
ATOM    117  O   VAL A   9      50.757  18.677  29.432  0.00  0.00    -0.273 OA
BRANCH 114 118
ATOM    118  CA  VAL A   9      51.114  16.295  29.546  0.00  0.00    +0.149 C 
BRANCH 118 121
ATOM    119  C   GLY A   8      49.582  16.018  31.429  0.00  0.00    +0.243 C 
ATOM    120  O   GLY A   8      50.492  15.860  32.242  0.00  0.00    -0.273 OA
ATOM    121  N   VAL A   9      49.782  16.116  30.116  0.00  0.00    -0.297 N 
ATOM    122  H   VAL A   9      48.963  16.063  29.477  0.00  0.00    +0.150 HD
BRANCH 119 123
ATOM    123  CA  GLY A   8      48.149  16.058  31.925  0.00  0.00    +0.176 C 
BRANCH 123 126
ATOM    124  C   SER A   7      47.359  16.154  34.207  0.00  0.00    +0.243 C 
ATOM    125  O   SER A   7      46.238  16.505  33.819  0.00  0.00    -0.273 OA
ATOM    126  N   GLY A   8      48.337  15.924  33.358  0.00  0.00    -0.295 N 
ATOM    127  H   GLY A   8      49.268  15.639  33.723  0.00  0.00    +0.150 HD
BRANCH 124 128
ATOM    128  CA  SER A   7      47.680  15.970  35.726  0.00  0.00    +0.178 C 
BRANCH 128 130
ATOM    129  C   PRO A   6      49.654  14.573  36.237  0.00  0.00    +0.241 C 
ATOM    130  N   SER A   7      49.086  15.764  36.066  0.00  0.00    -0.295 N 
ATOM    131  H   SER A   7      49.684  16.607  36.182  0.00  0.00    +0.150 HD
ATOM    132  O   PRO A   6      49.063  13.499  36.033  0.00  0.00    -0.273 OA
BRANCH 129 138
ATOM    133  C   GLN A   5      51.673  16.802  37.536  0.00  0.00    +0.244 C 
ATOM    134  N   PRO A   6      51.463  15.503  37.732  0.00  0.00    -0.272 N 
ATOM    135  CD  PRO A   6      51.532  14.805  39.035  0.00  0.00    +0.094 C 
ATOM    136  CG  PRO A   6      51.513  13.340  38.660  0.00  0.00    +0.024 C 
ATOM    137  CB  PRO A   6      51.568  13.224  37.184  0.00  0.00    +0.031 C 
ATOM    138  CA  PRO A   6      51.146  14.593  36.627  0.00  0.00    +0.152 C 
ATOM    139  O   GLN A   5      51.451  17.343  36.474  0.00  0.00    -0.273 OA
BRANCH 133 140
ATOM    140  CA  GLN A   5      51.892  17.665  38.765  0.00  0.00    +0.149 C 
BRANCH 140 143
ATOM    141  C   ILE A   4      54.281  18.198  38.539  0.00  0.00    +0.241 C 
ATOM    142  O   ILE A   4      54.611  17.045  38.679  0.00  0.00    -0.273 OA
ATOM    143  N   GLN A   5      53.018  18.597  38.635  0.00  0.00    -0.297 N 
ATOM    144  H   GLN A   5      52.818  19.617  38.617  0.00  0.00    +0.150 HD
BRANCH 141 145
ATOM    145  CA  ILE A   4      55.339  19.286  38.407  0.00  0.00    +0.149 C 
BRANCH 145 148
ATOM    146  C   GLY A   3      56.641  20.186  40.255  0.00  0.00    +0.243 C 
ATOM    147  O   GLY A   3      56.316  21.343  40.007  0.00  0.00    -0.273 OA
ATOM    148  N   ILE A   4      56.231  19.143  39.540  0.00  0.00    -0.297 N 
ATOM    149  H   ILE A   4      56.562  18.193  39.803  0.00  0.00    +0.150 HD
BRANCH 146 150
ATOM    150  CA  GLY A   3      57.508  19.851  41.466  0.00  0.00    +0.176 C 
BRANCH 150 152
ATOM    151  C   SER A   2      59.690  20.821  41.866  0.00  0.00    +0.243 C 
ATOM    152  N   GLY A   3      58.376  20.960  41.835  0.00  0.00    -0.295 N 
ATOM    153  H   GLY A   3      57.954  21.879  42.079  0.00  0.00    +0.150 HD
ATOM    154  O   SER A   2      60.255  19.742  41.647  0.00  0.00    -0.273 OA
BRANCH 151 155
ATOM    155  CA  SER A   2      60.462  22.083  42.236  0.00  0.00    +0.178 C 
BRANCH 155 158
ATOM    156  C   PHE A   1      62.143  22.558  43.954  0.00  0.00    +0.239 C 
ATOM    157  O   PHE A   1      61.789  23.714  44.030  0.00  0.00    -0.274 OA
ATOM    158  N   SER A   2      61.629  21.715  43.084  0.00  0.00    -0.295 N 
ATOM    159  H   SER A   2      62.048  20.768  42.986  0.00  0.00    +0.150 HD
BRANCH 156 160
ATOM    160  CA  PHE A   1      63.178  22.011  44.900  0.00  0.00    +0.149 C 
BRANCH 160 161
ATOM    161  N   PHE A   1      64.238  23.041  45.019  0.00  0.00    -0.238 NA
ATOM    162  H   PHE A   1      63.955  24.036  45.123  0.00  0.00    +0.142 HD
ENDBRANCH 160 161
BRANCH 160 163
ATOM    163  CB  PHE A   1      62.471  21.715  46.246  0.00  0.00    +0.053 C 
BRANCH 163 164
ATOM    164  CG  PHE A   1      61.498  20.542  46.190  0.00  0.00    -0.020 A 
ATOM    165  CD2 PHE A   1      61.897  19.256  46.590  0.00  0.00    -0.004 A 
ATOM    166  CE2 PHE A   1      61.052  18.177  46.431  0.00  0.00    -0.000 A 
ATOM    167  CZ  PHE A   1      59.760  18.368  45.908  0.00  0.00    -0.000 A 
ATOM    168  CE1 PHE A   1      59.320  19.630  45.594  0.00  0.00    -0.000 A 
ATOM    169  CD1 PHE A   1      60.197  20.709  45.709  0.00  0.00    -0.004 A 
ENDBRANCH 163 164
ENDBRANCH 160 163
ENDBRANCH 156 160
ENDBRANCH 155 158
BRANCH 155 170
ATOM    170  CB  SER A   2      60.863  22.817  40.954  0.00  0.00    +0.166 C 
BRANCH 170 171
ATOM    171  OG  SER A   2      59.971  23.878  40.680  0.00  0.00    -0.380 OA
ATOM    172  H   SER A   2      60.251  24.336  39.848  0.00  0.00    +0.211 HD
ENDBRANCH 170 171
ENDBRANCH 155 170
ENDBRANCH 151 155
ENDBRANCH 150 152
ENDBRANCH 146 150
ENDBRANCH 145 148
BRANCH 145 173
ATOM    173  CB  ILE A   4      56.106  19.161  37.086  0.00  0.00    +0.027 C 
ATOM    174  CG2 ILE A   4      55.187  18.735  35.942  0.00  0.00    +0.002 C 
BRANCH 173 175
ATOM    175  CG1 ILE A   4      56.889  20.444  36.791  0.00  0.00    +0.002 C 
ATOM    176  CD1 ILE A   4      57.961  20.255  35.670  0.00  0.00    +0.000 C 
ENDBRANCH 173 175
ENDBRANCH 145 173
ENDBRANCH 141 145
ENDBRANCH 140 143
BRANCH 140 177
ATOM    177  CB  GLN A   5      50.634  18.479  38.803  0.00  0.00    +0.039 C 
BRANCH 177 178
ATOM    178  CG  GLN A   5      50.216  18.891  40.094  0.00  0.00    +0.087 C 
BRANCH 178 179
ATOM    179  CD  GLN A   5      48.788  19.288  40.049  0.00  0.00    +0.219 C 
ATOM    180  OE1 GLN A   5      47.919  18.473  40.231  0.00  0.00    -0.275 OA
ATOM    181  NE2 GLN A   5      48.534  20.501  39.646  0.00  0.00    -0.329 N 
ATOM    182 HE21 GLN A   5      49.313  21.175  39.501  0.00  0.00    +0.145 HD
ATOM    183 HE22 GLN A   5      47.552  20.795  39.470  0.00  0.00    +0.145 HD
ENDBRANCH 178 179
ENDBRANCH 177 178
ENDBRANCH 140 177
ENDBRANCH 133 140
ENDBRANCH 129 138
ENDBRANCH 128 130
BRANCH 128 184
ATOM    184  CB  SER A   7      47.164  17.196  36.459  0.00  0.00    +0.166 C 
BRANCH 184 185
ATOM    185  OG  SER A   7      47.790  18.302  35.868  0.00  0.00    -0.380 OA
ATOM    186  H   SER A   7      47.484  19.131  36.315  0.00  0.00    +0.211 HD
ENDBRANCH 184 185
ENDBRANCH 128 184
ENDBRANCH 124 128
ENDBRANCH 123 126
ENDBRANCH 119 123
ENDBRANCH 118 121
BRANCH 118 187
ATOM    187  CB  VAL A   9      51.172  15.911  28.067  0.00  0.00    +0.027 C 
ATOM    188  CG2 VAL A   9      50.773  14.442  27.905  0.00  0.00    +0.002 C 
ATOM    189  CG1 VAL A   9      52.557  16.153  27.534  0.00  0.00    +0.002 C 
ENDBRANCH 118 187
ENDBRANCH 114 118
ENDBRANCH 113 115
BRANCH 113 190
ATOM    190  CB  ILE A  10      54.620  19.480  31.108  0.00  0.00    +0.027 C 
ATOM    191  CG2 ILE A  10      54.467  19.134  32.604  0.00  0.00    +0.002 C 
BRANCH 190 192
ATOM    192  CG1 ILE A  10      55.698  18.651  30.445  0.00  0.00    +0.002 C 
ATOM    193  CD1 ILE A  10      57.012  18.862  31.112  0.00  0.00    +0.000 C 
ENDBRANCH 190 192
ENDBRANCH 113 190
ENDBRANCH 109 113
ENDBRANCH 108 110
BRANCH 108 194
ATOM    194  CB  THR A  11      51.542  23.342  28.296  0.00  0.00    +0.137 C 
ATOM    195  CG2 THR A  11      50.282  22.581  28.576  0.00  0.00    +0.034 C 
BRANCH 194 196
ATOM    196  OG1 THR A  11      51.817  24.121  29.456  0.00  0.00    -0.382 OA
ATOM    197  HG1 THR A  11      51.935  23.521  30.235  0.00  0.00    +0.210 HD
ENDBRANCH 194 196
ENDBRANCH 108 194
ENDBRANCH 104 108
ENDBRANCH 103 106
BRANCH 103 198
ATOM    198  CB  ILE A  12      55.033  25.505  25.022  0.00  0.00    +0.027 C 
ATOM    199  CG2 ILE A  12      54.952  24.461  23.935  0.00  0.00    +0.002 C 
BRANCH 198 200
ATOM    200  CG1 ILE A  12      53.851  26.477  24.955  0.00  0.00    +0.002 C 
ATOM    201  CD1 ILE A  12      53.564  26.973  23.557  0.00  0.00    +0.000 C 
ENDBRANCH 198 200
ENDBRANCH 103 198
ENDBRANCH   1 103
TORSDOF 79
REMARK  Name = ../refined-set-2016/2ov4/2ov4_pocket.pdb
REMARK  255 active torsions:
REMARK  status: ('A' for Active; 'I' for Inactive)
REMARK    1  A    between atoms: _1  and  _3
REMARK    2  A    between atoms: _3  and  _4
REMARK    3  A    between atoms: _3  and  _6
REMARK    4  A    between atoms: _6  and  _7
REMARK    5  A    between atoms: _13  and  _15
REMARK    6  A    between atoms: _15  and  _16
REMARK    7  A    between atoms: _15  and  _18
REMARK    8  A    between atoms: _18  and  _19
REMARK    9  A    between atoms: _21  and  _23
REMARK   10  A    between atoms: _23  and  _24
REMARK   11  A    between atoms: _26  and  _28
REMARK   12  A    between atoms: _28  and  _29
REMARK   13  A    between atoms: _28  and  _31
REMARK   14  A    between atoms: _31  and  _32
REMARK   15  A    between atoms: _35  and  _37
REMARK   16  A    between atoms: _37  and  _38
REMARK   17  A    between atoms: _37  and  _40
REMARK   18  A    between atoms: _40  and  _41
REMARK   19  A    between atoms: _41  and  _42
REMARK   20  A    between atoms: _48  and  _49
REMARK   21  A    between atoms: _54  and  _56
REMARK   22  A    between atoms: _56  and  _57
REMARK   23  A    between atoms: _56  and  _59
REMARK   24  A    between atoms: _59  and  _60
REMARK   25  A    between atoms: _62  and  _64
REMARK   26  A    between atoms: _64  and  _65
REMARK   27  A    between atoms: _67  and  _69
REMARK   28  A    between atoms: _69  and  _70
REMARK   29  A    between atoms: _69  and  _72
REMARK   30  A    between atoms: _75  and  _77
REMARK   31  A    between atoms: _77  and  _78
REMARK   32  A    between atoms: _77  and  _80
REMARK   33  A    between atoms: _80  and  _81
REMARK   34  A    between atoms: _84  and  _86
REMARK   35  A    between atoms: _86  and  _87
REMARK   36  A    between atoms: _86  and  _89
REMARK   37  A    between atoms: _89  and  _90
REMARK   38  A    between atoms: _93  and  _95
REMARK   39  A    between atoms: _95  and  _96
REMARK   40  A    between atoms: _95  and  _98
REMARK   41  A    between atoms: _98  and  _99
REMARK   42  A    between atoms: _102  and  _104
REMARK   43  A    between atoms: _104  and  _105
REMARK   44  A    between atoms: _107  and  _109
REMARK   45  A    between atoms: _109  and  _110
REMARK   46  A    between atoms: _109  and  _112
REMARK   47  A    between atoms: _112  and  _113
REMARK   48  A    between atoms: _118  and  _120
REMARK   49  A    between atoms: _120  and  _121
REMARK   50  A    between atoms: _120  and  _123
REMARK   51  A    between atoms: _123  and  _124
REMARK   52  A    between atoms: _129  and  _130
REMARK   53  A    between atoms: _132  and  _134
REMARK   54  A    between atoms: _134  and  _135
REMARK   55  A    between atoms: _134  and  _137
REMARK   56  A    between atoms: _137  and  _138
REMARK   57  A    between atoms: _141  and  _143
REMARK   58  A    between atoms: _143  and  _144
REMARK   59  A    between atoms: _146  and  _148
REMARK   60  A    between atoms: _148  and  _149
REMARK   61  A    between atoms: _152  and  _154
REMARK   62  A    between atoms: _154  and  _155
REMARK   63  A    between atoms: _154  and  _157
REMARK   64  A    between atoms: _157  and  _158
REMARK   65  A    between atoms: _161  and  _163
REMARK   66  A    between atoms: _163  and  _164
REMARK   67  A    between atoms: _163  and  _166
REMARK   68  A    between atoms: _166  and  _167
REMARK   69  A    between atoms: _167  and  _168
REMARK   70  A    between atoms: _168  and  _169
REMARK   71  A    between atoms: _178  and  _180
REMARK   72  A    between atoms: _180  and  _181
REMARK   73  A    between atoms: _180  and  _183
REMARK   74  A    between atoms: _183  and  _184
REMARK   75  A    between atoms: _184  and  _185
REMARK   76  A    between atoms: _190  and  _192
REMARK   77  A    between atoms: _192  and  _193
REMARK   78  A    between atoms: _192  and  _195
REMARK   79  A    between atoms: _195  and  _196
REMARK   80  A    between atoms: _202  and  _204
REMARK   81  A    between atoms: _204  and  _205
REMARK   82  A    between atoms: _204  and  _207
REMARK   83  A    between atoms: _209  and  _211
REMARK   84  A    between atoms: _211  and  _212
REMARK   85  A    between atoms: _211  and  _214
REMARK   86  A    between atoms: _214  and  _215
REMARK   87  A    between atoms: _218  and  _220
REMARK   88  A    between atoms: _220  and  _221
REMARK   89  A    between atoms: _220  and  _223
REMARK   90  A    between atoms: _226  and  _228
REMARK   91  A    between atoms: _228  and  _229
REMARK   92  A    between atoms: _228  and  _231
REMARK   93  A    between atoms: _231  and  _232
REMARK   94  A    between atoms: _237  and  _239
REMARK   95  A    between atoms: _239  and  _240
REMARK   96  A    between atoms: _243  and  _245
REMARK   97  A    between atoms: _245  and  _246
REMARK   98  A    between atoms: _245  and  _248
REMARK   99  A    between atoms: _248  and  _249
REMARK  100  A    between atoms: _252  and  _254
REMARK  101  A    between atoms: _254  and  _255
REMARK  102  A    between atoms: _254  and  _257
REMARK  103  A    between atoms: _260  and  _262
REMARK  104  A    between atoms: _262  and  _263
REMARK  105  A    between atoms: _262  and  _265
REMARK  106  A    between atoms: _265  and  _266
REMARK  107  A    between atoms: _266  and  _267
REMARK  108  A    between atoms: _272  and  _274
REMARK  109  A    between atoms: _274  and  _275
REMARK  110  A    between atoms: _274  and  _277
REMARK  111  A    between atoms: _277  and  _278
REMARK  112  A    between atoms: _281  and  _283
REMARK  113  A    between atoms: _283  and  _284
REMARK  114  A    between atoms: _283  and  _286
REMARK  115  A    between atoms: _286  and  _287
REMARK  116  A    between atoms: _292  and  _293
REMARK  117  A    between atoms: _295  and  _297
REMARK  118  A    between atoms: _297  and  _298
REMARK  119  A    between atoms: _297  and  _300
REMARK  120  A    between atoms: _300  and  _301
REMARK  121  A    between atoms: _301  and  _302
REMARK  122  A    between atoms: _307  and  _309
REMARK  123  A    between atoms: _309  and  _310
REMARK  124  A    between atoms: _309  and  _312
REMARK  125  A    between atoms: _312  and  _313
REMARK  126  A    between atoms: _313  and  _314
REMARK  127  A    between atoms: _314  and  _315
REMARK  128  A    between atoms: _315  and  _316
REMARK  129  A    between atoms: _320  and  _322
REMARK  130  A    between atoms: _322  and  _323
REMARK  131  A    between atoms: _322  and  _325
REMARK  132  A    between atoms: _325  and  _326
REMARK  133  A    between atoms: _331  and  _332
REMARK  134  A    between atoms: _334  and  _336
REMARK  135  A    between atoms: _336  and  _337
REMARK  136  A    between atoms: _336  and  _339
REMARK  137  A    between atoms: _339  and  _340
REMARK  138  A    between atoms: _340  and  _341
REMARK  139  A    between atoms: _343  and  _345
REMARK  140  A    between atoms: _345  and  _346
REMARK  141  A    between atoms: _345  and  _348
REMARK  142  A    between atoms: _352  and  _353
REMARK  143  A    between atoms: _358  and  _360
REMARK  144  A    between atoms: _360  and  _361
REMARK  145  A    between atoms: _360  and  _363
REMARK  146  A    between atoms: _366  and  _368
REMARK  147  A    between atoms: _368  and  _369
REMARK  148  A    between atoms: _371  and  _373
REMARK  149  A    between atoms: _373  and  _374
REMARK  150  A    between atoms: _373  and  _376
REMARK  151  A    between atoms: _376  and  _377
REMARK  152  A    between atoms: _377  and  _378
REMARK  153  A    between atoms: _381  and  _383
REMARK  154  A    between atoms: _383  and  _384
REMARK  155  A    between atoms: _383  and  _386
REMARK  156  A    between atoms: _386  and  _387
REMARK  157  A    between atoms: _390  and  _392
REMARK  158  A    between atoms: _392  and  _393
REMARK  159  A    between atoms: _392  and  _395
REMARK  160  A    between atoms: _395  and  _396
REMARK  161  A    between atoms: _396  and  _397
REMARK  162  A    between atoms: _402  and  _404
REMARK  163  A    between atoms: _404  and  _405
REMARK  164  A    between atoms: _404  and  _407
REMARK  165  A    between atoms: _407  and  _408
REMARK  166  A    between atoms: _408  and  _409
REMARK  167  A    between atoms: _409  and  _410
REMARK  168  A    between atoms: _410  and  _411
REMARK  169  A    between atoms: _415  and  _417
REMARK  170  A    between atoms: _417  and  _418
REMARK  171  A    between atoms: _417  and  _420
REMARK  172  A    between atoms: _420  and  _421
REMARK  173  A    between atoms: _426  and  _428
REMARK  174  A    between atoms: _428  and  _429
REMARK  175  A    between atoms: _428  and  _431
REMARK  176  A    between atoms: _431  and  _432
REMARK  177  A    between atoms: _435  and  _437
REMARK  178  A    between atoms: _437  and  _438
REMARK  179  A    between atoms: _437  and  _440
REMARK  180  A    between atoms: _440  and  _441
REMARK  181  A    between atoms: _445  and  _446
REMARK  182  A    between atoms: _451  and  _453
REMARK  183  A    between atoms: _453  and  _454
REMARK  184  A    between atoms: _453  and  _456
REMARK  185  A    between atoms: _459  and  _461
REMARK  186  A    between atoms: _461  and  _462
REMARK  187  A    between atoms: _464  and  _466
REMARK  188  A    between atoms: _466  and  _467
REMARK  189  A    between atoms: _470  and  _472
REMARK  190  A    between atoms: _472  and  _473
REMARK  191  A    between atoms: _472  and  _475
REMARK  192  A    between atoms: _475  and  _476
REMARK  193  A    between atoms: _476  and  _477
REMARK  194  A    between atoms: _477  and  _478
REMARK  195  A    between atoms: _487  and  _489
REMARK  196  A    between atoms: _489  and  _490
REMARK  197  A    between atoms: _489  and  _492
REMARK  198  A    between atoms: _492  and  _493
REMARK  199  A    between atoms: _496  and  _498
REMARK  200  A    between atoms: _498  and  _499
REMARK  201  A    between atoms: _498  and  _501
REMARK  202  A    between atoms: _501  and  _502
REMARK  203  A    between atoms: _502  and  _503
REMARK  204  A    between atoms: _505  and  _507
REMARK  205  A    between atoms: _507  and  _508
REMARK  206  A    between atoms: _507  and  _510
REMARK  207  A    between atoms: _510  and  _511
REMARK  208  A    between atoms: _513  and  _515
REMARK  209  A    between atoms: _515  and  _516
REMARK  210  A    between atoms: _515  and  _518
REMARK  211  A    between atoms: _518  and  _519
REMARK  212  A    between atoms: _519  and  _520
REMARK  213  A    between atoms: _520  and  _521
REMARK  214  A    between atoms: _521  and  _522
REMARK  215  A    between atoms: _526  and  _528
REMARK  216  A    between atoms: _528  and  _529
REMARK  217  A    between atoms: _528  and  _531
REMARK  218  A    between atoms: _531  and  _532
REMARK  219  A    between atoms: _532  and  _533
REMARK  220  A    between atoms: _533  and  _534
REMARK  221  A    between atoms: _534  and  _535
REMARK  222  A    between atoms: _539  and  _541
REMARK  223  A    between atoms: _541  and  _542
REMARK  224  A    between atoms: _541  and  _544
REMARK  225  A    between atoms: _544  and  _545
REMARK  226  A    between atoms: _545  and  _546
REMARK  227  A    between atoms: _548  and  _550
REMARK  228  A    between atoms: _550  and  _551
REMARK  229  A    between atoms: _550  and  _553
REMARK  230  A    between atoms: _553  and  _554
REMARK  231  A    between atoms: _556  and  _558
REMARK  232  A    between atoms: _558  and  _559
REMARK  233  A    between atoms: _558  and  _561
REMARK  234  A    between atoms: _561  and  _562
REMARK  235  A    between atoms: _562  and  _563
REMARK  236  A    between atoms: _563  and  _564
REMARK  237  A    between atoms: _564  and  _565
REMARK  238  A    between atoms: _569  and  _571
REMARK  239  A    between atoms: _571  and  _572
REMARK  240  A    between atoms: _571  and  _574
REMARK  241  A    between atoms: _574  and  _575
REMARK  242  A    between atoms: _577  and  _579
REMARK  243  A    between atoms: _579  and  _580
REMARK  244  A    between atoms: _579  and  _582
REMARK  245  A    between atoms: _582  and  _583
REMARK  246  A    between atoms: _587  and  _588
REMARK  247  A    between atoms: _593  and  _595
REMARK  248  A    between atoms: _595  and  _596
REMARK  249  A    between atoms: _595  and  _598
REMARK  250  A    between atoms: _598  and  _599
REMARK  251  A    between atoms: _604  and  _605
REMARK  252  A    between atoms: _607  and  _609
REMARK  253  A    between atoms: _609  and  _610
REMARK  254  A    between atoms: _609  and  _612
REMARK  255  A    between atoms: _612  and  _613
REMARK                            x       y       z     vdW  Elec       q    Type
REMARK                         _______ _______ _______ _____ _____    ______ ____
ROOT
ATOM      1  CA  ILE A   2      56.493  14.305  39.939  0.00  0.00    +0.148 C 
ENDROOT
BRANCH   1   3
ATOM      2  C   CYS A   1      58.248  15.796  40.791  0.00  0.00    +0.239 C 
ATOM      3  N   ILE A   2      57.721  14.594  40.665  0.00  0.00    -0.297 N 
ATOM      4  H   ILE A   2      58.217  13.798  41.115  0.00  0.00    +0.150 HD
ATOM      5  O   CYS A   1      57.730  16.822  40.315  0.00  0.00    -0.274 OA
BRANCH   2   6
ATOM      6  CA  CYS A   1      59.422  15.836  41.723  0.00  0.00    +0.156 C 
BRANCH   6   7
ATOM      7  N   CYS A   1      60.477  16.764  41.307  0.00  0.00    -0.237 NA
ATOM      8  H   CYS A   1      60.234  17.771  41.217  0.00  0.00    +0.142 HD
ENDBRANCH   6   7
BRANCH   6   9
ATOM      9  CB  CYS A   1      58.867  16.355  43.053  0.00  0.00    +0.095 C 
ATOM     10  SG  CYS A   1      58.046  15.184  44.172  0.00  0.00    -0.080 S 
ENDBRANCH   6   9
ENDBRANCH   2   6
ENDBRANCH   1   3
BRANCH   1  11
ATOM     11  C   ILE A   2      55.409  14.297  41.051  0.00  0.00    +0.241 C 
ATOM     12  O   ILE A   2      55.304  13.339  41.795  0.00  0.00    -0.273 OA
ATOM     13  N   VAL A   3      54.762  15.438  41.292  0.00  0.00    -0.298 N 
ATOM     14  H   VAL A   3      54.918  16.256  40.669  0.00  0.00    +0.150 HD
BRANCH  13  15
ATOM     15  CA  VAL A   3      53.850  15.558  42.401  0.00  0.00    +0.137 C 
BRANCH  15  16
ATOM     16  CB  VAL A   3      53.798  17.021  43.029  0.00  0.00    +0.026 C 
ATOM     17  CG2 VAL A   3      55.095  17.420  43.709  0.00  0.00    +0.002 C 
ATOM     18  CG1 VAL A   3      53.378  18.078  42.059  0.00  0.00    +0.002 C 
ENDBRANCH  15  16
BRANCH  15  19
ATOM     19  C   VAL A   3      52.474  14.895  42.178  0.00  0.00    +0.227 C 
ATOM     20  O   VAL A   3      51.489  15.571  41.887  0.00  0.00    -0.286 OA
ENDBRANCH  15  19
ENDBRANCH  13  15
ENDBRANCH   1  11
BRANCH   1  21
ATOM     21  CB  ILE A   2      56.680  12.903  39.268  0.00  0.00    +0.027 C 
ATOM     22  CG2 ILE A   2      55.356  12.271  38.871  0.00  0.00    +0.002 C 
BRANCH  21  23
ATOM     23  CG1 ILE A   2      57.672  13.031  38.098  0.00  0.00    +0.002 C 
ATOM     24  CD1 ILE A   2      58.006  11.713  37.417  0.00  0.00    +0.000 C 
ENDBRANCH  21  23
ENDBRANCH   1  21
TORSDOF 10
REMARK  Name = ../refined-set-2016/2ov4/2ov4_pocket.pdb
REMARK  255 active torsions:
REMARK  status: ('A' for Active; 'I' for Inactive)
REMARK    1  A    between atoms: _1  and  _3
REMARK    2  A    between atoms: _3  and  _4
REMARK    3  A    between atoms: _3  and  _6
REMARK    4  A    between atoms: _6  and  _7
REMARK    5  A    between atoms: _13  and  _15
REMARK    6  A    between atoms: _15  and  _16
REMARK    7  A    between atoms: _15  and  _18
REMARK    8  A    between atoms: _18  and  _19
REMARK    9  A    between atoms: _21  and  _23
REMARK   10  A    between atoms: _23  and  _24
REMARK   11  A    between atoms: _26  and  _28
REMARK   12  A    between atoms: _28  and  _29
REMARK   13  A    between atoms: _28  and  _31
REMARK   14  A    between atoms: _31  and  _32
REMARK   15  A    between atoms: _35  and  _37
REMARK   16  A    between atoms: _37  and  _38
REMARK   17  A    between atoms: _37  and  _40
REMARK   18  A    between atoms: _40  and  _41
REMARK   19  A    between atoms: _41  and  _42
REMARK   20  A    between atoms: _48  and  _49
REMARK   21  A    between atoms: _54  and  _56
REMARK   22  A    between atoms: _56  and  _57
REMARK   23  A    between atoms: _56  and  _59
REMARK   24  A    between atoms: _59  and  _60
REMARK   25  A    between atoms: _62  and  _64
REMARK   26  A    between atoms: _64  and  _65
REMARK   27  A    between atoms: _67  and  _69
REMARK   28  A    between atoms: _69  and  _70
REMARK   29  A    between atoms: _69  and  _72
REMARK   30  A    between atoms: _75  and  _77
REMARK   31  A    between atoms: _77  and  _78
REMARK   32  A    between atoms: _77  and  _80
REMARK   33  A    between atoms: _80  and  _81
REMARK   34  A    between atoms: _84  and  _86
REMARK   35  A    between atoms: _86  and  _87
REMARK   36  A    between atoms: _86  and  _89
REMARK   37  A    between atoms: _89  and  _90
REMARK   38  A    between atoms: _93  and  _95
REMARK   39  A    between atoms: _95  and  _96
REMARK   40  A    between atoms: _95  and  _98
REMARK   41  A    between atoms: _98  and  _99
REMARK   42  A    between atoms: _102  and  _104
REMARK   43  A    between atoms: _104  and  _105
REMARK   44  A    between atoms: _107  and  _109
REMARK   45  A    between atoms: _109  and  _110
REMARK   46  A    between atoms: _109  and  _112
REMARK   47  A    between atoms: _112  and  _113
REMARK   48  A    between atoms: _118  and  _120
REMARK   49  A    between atoms: _120  and  _121
REMARK   50  A    between atoms: _120  and  _123
REMARK   51  A    between atoms: _123  and  _124
REMARK   52  A    between atoms: _129  and  _130
REMARK   53  A    between atoms: _132  and  _134
REMARK   54  A    between atoms: _134  and  _135
REMARK   55  A    between atoms: _134  and  _137
REMARK   56  A    between atoms: _137  and  _138
REMARK   57  A    between atoms: _141  and  _143
REMARK   58  A    between atoms: _143  and  _144
REMARK   59  A    between atoms: _146  and  _148
REMARK   60  A    between atoms: _148  and  _149
REMARK   61  A    between atoms: _152  and  _154
REMARK   62  A    between atoms: _154  and  _155
REMARK   63  A    between atoms: _154  and  _157
REMARK   64  A    between atoms: _157  and  _158
REMARK   65  A    between atoms: _161  and  _163
REMARK   66  A    between atoms: _163  and  _164
REMARK   67  A    between atoms: _163  and  _166
REMARK   68  A    between atoms: _166  and  _167
REMARK   69  A    between atoms: _167  and  _168
REMARK   70  A    between atoms: _168  and  _169
REMARK   71  A    between atoms: _178  and  _180
REMARK   72  A    between atoms: _180  and  _181
REMARK   73  A    between atoms: _180  and  _183
REMARK   74  A    between atoms: _183  and  _184
REMARK   75  A    between atoms: _184  and  _185
REMARK   76  A    between atoms: _190  and  _192
REMARK   77  A    between atoms: _192  and  _193
REMARK   78  A    between atoms: _192  and  _195
REMARK   79  A    between atoms: _195  and  _196
REMARK   80  A    between atoms: _202  and  _204
REMARK   81  A    between atoms: _204  and  _205
REMARK   82  A    between atoms: _204  and  _207
REMARK   83  A    between atoms: _209  and  _211
REMARK   84  A    between atoms: _211  and  _212
REMARK   85  A    between atoms: _211  and  _214
REMARK   86  A    between atoms: _214  and  _215
REMARK   87  A    between atoms: _218  and  _220
REMARK   88  A    between atoms: _220  and  _221
REMARK   89  A    between atoms: _220  and  _223
REMARK   90  A    between atoms: _226  and  _228
REMARK   91  A    between atoms: _228  and  _229
REMARK   92  A    between atoms: _228  and  _231
REMARK   93  A    between atoms: _231  and  _232
REMARK   94  A    between atoms: _237  and  _239
REMARK   95  A    between atoms: _239  and  _240
REMARK   96  A    between atoms: _243  and  _245
REMARK   97  A    between atoms: _245  and  _246
REMARK   98  A    between atoms: _245  and  _248
REMARK   99  A    between atoms: _248  and  _249
REMARK  100  A    between atoms: _252  and  _254
REMARK  101  A    between atoms: _254  and  _255
REMARK  102  A    between atoms: _254  and  _257
REMARK  103  A    between atoms: _260  and  _262
REMARK  104  A    between atoms: _262  and  _263
REMARK  105  A    between atoms: _262  and  _265
REMARK  106  A    between atoms: _265  and  _266
REMARK  107  A    between atoms: _266  and  _267
REMARK  108  A    between atoms: _272  and  _274
REMARK  109  A    between atoms: _274  and  _275
REMARK  110  A    between atoms: _274  and  _277
REMARK  111  A    between atoms: _277  and  _278
REMARK  112  A    between atoms: _281  and  _283
REMARK  113  A    between atoms: _283  and  _284
REMARK  114  A    between atoms: _283  and  _286
REMARK  115  A    between atoms: _286  and  _287
REMARK  116  A    between atoms: _292  and  _293
REMARK  117  A    between atoms: _295  and  _297
REMARK  118  A    between atoms: _297  and  _298
REMARK  119  A    between atoms: _297  and  _300
REMARK  120  A    between atoms: _300  and  _301
REMARK  121  A    between atoms: _301  and  _302
REMARK  122  A    between atoms: _307  and  _309
REMARK  123  A    between atoms: _309  and  _310
REMARK  124  A    between atoms: _309  and  _312
REMARK  125  A    between atoms: _312  and  _313
REMARK  126  A    between atoms: _313  and  _314
REMARK  127  A    between atoms: _314  and  _315
REMARK  128  A    between atoms: _315  and  _316
REMARK  129  A    between atoms: _320  and  _322
REMARK  130  A    between atoms: _322  and  _323
REMARK  131  A    between atoms: _322  and  _325
REMARK  132  A    between atoms: _325  and  _326
REMARK  133  A    between atoms: _331  and  _332
REMARK  134  A    between atoms: _334  and  _336
REMARK  135  A    between atoms: _336  and  _337
REMARK  136  A    between atoms: _336  and  _339
REMARK  137  A    between atoms: _339  and  _340
REMARK  138  A    between atoms: _340  and  _341
REMARK  139  A    between atoms: _343  and  _345
REMARK  140  A    between atoms: _345  and  _346
REMARK  141  A    between atoms: _345  and  _348
REMARK  142  A    between atoms: _352  and  _353
REMARK  143  A    between atoms: _358  and  _360
REMARK  144  A    between atoms: _360  and  _361
REMARK  145  A    between atoms: _360  and  _363
REMARK  146  A    between atoms: _366  and  _368
REMARK  147  A    between atoms: _368  and  _369
REMARK  148  A    between atoms: _371  and  _373
REMARK  149  A    between atoms: _373  and  _374
REMARK  150  A    between atoms: _373  and  _376
REMARK  151  A    between atoms: _376  and  _377
REMARK  152  A    between atoms: _377  and  _378
REMARK  153  A    between atoms: _381  and  _383
REMARK  154  A    between atoms: _383  and  _384
REMARK  155  A    between atoms: _383  and  _386
REMARK  156  A    between atoms: _386  and  _387
REMARK  157  A    between atoms: _390  and  _392
REMARK  158  A    between atoms: _392  and  _393
REMARK  159  A    between atoms: _392  and  _395
REMARK  160  A    between atoms: _395  and  _396
REMARK  161  A    between atoms: _396  and  _397
REMARK  162  A    between atoms: _402  and  _404
REMARK  163  A    between atoms: _404  and  _405
REMARK  164  A    between atoms: _404  and  _407
REMARK  165  A    between atoms: _407  and  _408
REMARK  166  A    between atoms: _408  and  _409
REMARK  167  A    between atoms: _409  and  _410
REMARK  168  A    between atoms: _410  and  _411
REMARK  169  A    between atoms: _415  and  _417
REMARK  170  A    between atoms: _417  and  _418
REMARK  171  A    between atoms: _417  and  _420
REMARK  172  A    between atoms: _420  and  _421
REMARK  173  A    between atoms: _426  and  _428
REMARK  174  A    between atoms: _428  and  _429
REMARK  175  A    between atoms: _428  and  _431
REMARK  176  A    between atoms: _431  and  _432
REMARK  177  A    between atoms: _435  and  _437
REMARK  178  A    between atoms: _437  and  _438
REMARK  179  A    between atoms: _437  and  _440
REMARK  180  A    between atoms: _440  and  _441
REMARK  181  A    between atoms: _445  and  _446
REMARK  182  A    between atoms: _451  and  _453
REMARK  183  A    between atoms: _453  and  _454
REMARK  184  A    between atoms: _453  and  _456
REMARK  185  A    between atoms: _459  and  _461
REMARK  186  A    between atoms: _461  and  _462
REMARK  187  A    between atoms: _464  and  _466
REMARK  188  A    between atoms: _466  and  _467
REMARK  189  A    between atoms: _470  and  _472
REMARK  190  A    between atoms: _472  and  _473
REMARK  191  A    between atoms: _472  and  _475
REMARK  192  A    between atoms: _475  and  _476
REMARK  193  A    between atoms: _476  and  _477
REMARK  194  A    between atoms: _477  and  _478
REMARK  195  A    between atoms: _487  and  _489
REMARK  196  A    between atoms: _489  and  _490
REMARK  197  A    between atoms: _489  and  _492
REMARK  198  A    between atoms: _492  and  _493
REMARK  199  A    between atoms: _496  and  _498
REMARK  200  A    between atoms: _498  and  _499
REMARK  201  A    between atoms: _498  and  _501
REMARK  202  A    between atoms: _501  and  _502
REMARK  203  A    between atoms: _502  and  _503
REMARK  204  A    between atoms: _505  and  _507
REMARK  205  A    between atoms: _507  and  _508
REMARK  206  A    between atoms: _507  and  _510
REMARK  207  A    between atoms: _510  and  _511
REMARK  208  A    between atoms: _513  and  _515
REMARK  209  A    between atoms: _515  and  _516
REMARK  210  A    between atoms: _515  and  _518
REMARK  211  A    between atoms: _518  and  _519
REMARK  212  A    between atoms: _519  and  _520
REMARK  213  A    between atoms: _520  and  _521
REMARK  214  A    between atoms: _521  and  _522
REMARK  215  A    between atoms: _526  and  _528
REMARK  216  A    between atoms: _528  and  _529
REMARK  217  A    between atoms: _528  and  _531
REMARK  218  A    between atoms: _531  and  _532
REMARK  219  A    between atoms: _532  and  _533
REMARK  220  A    between atoms: _533  and  _534
REMARK  221  A    between atoms: _534  and  _535
REMARK  222  A    between atoms: _539  and  _541
REMARK  223  A    between atoms: _541  and  _542
REMARK  224  A    between atoms: _541  and  _544
REMARK  225  A    between atoms: _544  and  _545
REMARK  226  A    between atoms: _545  and  _546
REMARK  227  A    between atoms: _548  and  _550
REMARK  228  A    between atoms: _550  and  _551
REMARK  229  A    between atoms: _550  and  _553
REMARK  230  A    between atoms: _553  and  _554
REMARK  231  A    between atoms: _556  and  _558
REMARK  232  A    between atoms: _558  and  _559
REMARK  233  A    between atoms: _558  and  _561
REMARK  234  A    between atoms: _561  and  _562
REMARK  235  A    between atoms: _562  and  _563
REMARK  236  A    between atoms: _563  and  _564
REMARK  237  A    between atoms: _564  and  _565
REMARK  238  A    between atoms: _569  and  _571
REMARK  239  A    between atoms: _571  and  _572
REMARK  240  A    between atoms: _571  and  _574
REMARK  241  A    between atoms: _574  and  _575
REMARK  242  A    between atoms: _577  and  _579
REMARK  243  A    between atoms: _579  and  _580
REMARK  244  A    between atoms: _579  and  _582
REMARK  245  A    between atoms: _582  and  _583
REMARK  246  A    between atoms: _587  and  _588
REMARK  247  A    between atoms: _593  and  _595
REMARK  248  A    between atoms: _595  and  _596
REMARK  249  A    between atoms: _595  and  _598
REMARK  250  A    between atoms: _598  and  _599
REMARK  251  A    between atoms: _604  and  _605
REMARK  252  A    between atoms: _607  and  _609
REMARK  253  A    between atoms: _609  and  _610
REMARK  254  A    between atoms: _609  and  _612
REMARK  255  A    between atoms: _612  and  _613
REMARK                            x       y       z     vdW  Elec       q    Type
REMARK                         _______ _______ _______ _____ _____    ______ ____
ROOT
ATOM      1  CA  HIS A   1      48.808  16.828  44.309  0.00  0.00    +0.151 C 
ENDROOT
BRANCH   1   2
ATOM      2  C   HIS A   1      47.766  16.622  43.182  0.00  0.00    +0.239 C 
ATOM      3  O   HIS A   1      46.606  17.058  43.288  0.00  0.00    -0.274 OA
ATOM      4  N   ALA A   2      48.187  15.901  42.139  0.00  0.00    -0.298 N 
ATOM      5  H   ALA A   2      49.163  15.542  42.145  0.00  0.00    +0.150 HD
BRANCH   4   6
ATOM      6  CA  ALA A   2      47.350  15.598  41.005  0.00  0.00    +0.137 C 
ATOM      7  CB  ALA A   2      48.055  14.623  40.093  0.00  0.00    +0.030 C 
BRANCH   6   8
ATOM      8  C   ALA A   2      45.943  15.096  41.414  0.00  0.00    +0.227 C 
ATOM      9  O   ALA A   2      44.936  15.459  40.789  0.00  0.00    -0.286 OA
ENDBRANCH   6   8
ENDBRANCH   4   6
ENDBRANCH   1   2
BRANCH   1  10
ATOM     10  N   HIS A   1      49.478  15.563  44.604  0.00  0.00    -0.238 NA
ATOM     11  H   HIS A   1      50.436  15.381  44.243  0.00  0.00    +0.142 HD
ENDBRANCH   1  10
BRANCH   1  12
ATOM     12  CB  HIS A   1      49.819  17.868  43.913  0.00  0.00    +0.074 C 
BRANCH  12  13
ATOM     13  CG  HIS A   1      50.305  18.675  45.073  0.00  0.00    +0.082 A 
ATOM     14  CD2 HIS A   1      49.632  19.488  45.929  0.00  0.00    +0.115 A 
ATOM     15  NE2 HIS A   1      50.535  19.936  46.855  0.00  0.00    -0.221 NA
ATOM     16  CE1 HIS A   1      51.720  19.402  46.589  0.00  0.00    +0.199 A 
ATOM     17  ND1 HIS A   1      51.607  18.624  45.531  0.00  0.00    -0.227 NA
ENDBRANCH  12  13
ENDBRANCH   1  12
TORSDOF 6
REMARK  Name = ../refined-set-2016/2ov4/2ov4_pocket.pdb
REMARK  255 active torsions:
REMARK  status: ('A' for Active; 'I' for Inactive)
REMARK    1  A    between atoms: _1  and  _3
REMARK    2  A    between atoms: _3  and  _4
REMARK    3  A    between atoms: _3  and  _6
REMARK    4  A    between atoms: _6  and  _7
REMARK    5  A    between atoms: _13  and  _15
REMARK    6  A    between atoms: _15  and  _16
REMARK    7  A    between atoms: _15  and  _18
REMARK    8  A    between atoms: _18  and  _19
REMARK    9  A    between atoms: _21  and  _23
REMARK   10  A    between atoms: _23  and  _24
REMARK   11  A    between atoms: _26  and  _28
REMARK   12  A    between atoms: _28  and  _29
REMARK   13  A    between atoms: _28  and  _31
REMARK   14  A    between atoms: _31  and  _32
REMARK   15  A    between atoms: _35  and  _37
REMARK   16  A    between atoms: _37  and  _38
REMARK   17  A    between atoms: _37  and  _40
REMARK   18  A    between atoms: _40  and  _41
REMARK   19  A    between atoms: _41  and  _42
REMARK   20  A    between atoms: _48  and  _49
REMARK   21  A    between atoms: _54  and  _56
REMARK   22  A    between atoms: _56  and  _57
REMARK   23  A    between atoms: _56  and  _59
REMARK   24  A    between atoms: _59  and  _60
REMARK   25  A    between atoms: _62  and  _64
REMARK   26  A    between atoms: _64  and  _65
REMARK   27  A    between atoms: _67  and  _69
REMARK   28  A    between atoms: _69  and  _70
REMARK   29  A    between atoms: _69  and  _72
REMARK   30  A    between atoms: _75  and  _77
REMARK   31  A    between atoms: _77  and  _78
REMARK   32  A    between atoms: _77  and  _80
REMARK   33  A    between atoms: _80  and  _81
REMARK   34  A    between atoms: _84  and  _86
REMARK   35  A    between atoms: _86  and  _87
REMARK   36  A    between atoms: _86  and  _89
REMARK   37  A    between atoms: _89  and  _90
REMARK   38  A    between atoms: _93  and  _95
REMARK   39  A    between atoms: _95  and  _96
REMARK   40  A    between atoms: _95  and  _98
REMARK   41  A    between atoms: _98  and  _99
REMARK   42  A    between atoms: _102  and  _104
REMARK   43  A    between atoms: _104  and  _105
REMARK   44  A    between atoms: _107  and  _109
REMARK   45  A    between atoms: _109  and  _110
REMARK   46  A    between atoms: _109  and  _112
REMARK   47  A    between atoms: _112  and  _113
REMARK   48  A    between atoms: _118  and  _120
REMARK   49  A    between atoms: _120  and  _121
REMARK   50  A    between atoms: _120  and  _123
REMARK   51  A    between atoms: _123  and  _124
REMARK   52  A    between atoms: _129  and  _130
REMARK   53  A    between atoms: _132  and  _134
REMARK   54  A    between atoms: _134  and  _135
REMARK   55  A    between atoms: _134  and  _137
REMARK   56  A    between atoms: _137  and  _138
REMARK   57  A    between atoms: _141  and  _143
REMARK   58  A    between atoms: _143  and  _144
REMARK   59  A    between atoms: _146  and  _148
REMARK   60  A    between atoms: _148  and  _149
REMARK   61  A    between atoms: _152  and  _154
REMARK   62  A    between atoms: _154  and  _155
REMARK   63  A    between atoms: _154  and  _157
REMARK   64  A    between atoms: _157  and  _158
REMARK   65  A    between atoms: _161  and  _163
REMARK   66  A    between atoms: _163  and  _164
REMARK   67  A    between atoms: _163  and  _166
REMARK   68  A    between atoms: _166  and  _167
REMARK   69  A    between atoms: _167  and  _168
REMARK   70  A    between atoms: _168  and  _169
REMARK   71  A    between atoms: _178  and  _180
REMARK   72  A    between atoms: _180  and  _181
REMARK   73  A    between atoms: _180  and  _183
REMARK   74  A    between atoms: _183  and  _184
REMARK   75  A    between atoms: _184  and  _185
REMARK   76  A    between atoms: _190  and  _192
REMARK   77  A    between atoms: _192  and  _193
REMARK   78  A    between atoms: _192  and  _195
REMARK   79  A    between atoms: _195  and  _196
REMARK   80  A    between atoms: _202  and  _204
REMARK   81  A    between atoms: _204  and  _205
REMARK   82  A    between atoms: _204  and  _207
REMARK   83  A    between atoms: _209  and  _211
REMARK   84  A    between atoms: _211  and  _212
REMARK   85  A    between atoms: _211  and  _214
REMARK   86  A    between atoms: _214  and  _215
REMARK   87  A    between atoms: _218  and  _220
REMARK   88  A    between atoms: _220  and  _221
REMARK   89  A    between atoms: _220  and  _223
REMARK   90  A    between atoms: _226  and  _228
REMARK   91  A    between atoms: _228  and  _229
REMARK   92  A    between atoms: _228  and  _231
REMARK   93  A    between atoms: _231  and  _232
REMARK   94  A    between atoms: _237  and  _239
REMARK   95  A    between atoms: _239  and  _240
REMARK   96  A    between atoms: _243  and  _245
REMARK   97  A    between atoms: _245  and  _246
REMARK   98  A    between atoms: _245  and  _248
REMARK   99  A    between atoms: _248  and  _249
REMARK  100  A    between atoms: _252  and  _254
REMARK  101  A    between atoms: _254  and  _255
REMARK  102  A    between atoms: _254  and  _257
REMARK  103  A    between atoms: _260  and  _262
REMARK  104  A    between atoms: _262  and  _263
REMARK  105  A    between atoms: _262  and  _265
REMARK  106  A    between atoms: _265  and  _266
REMARK  107  A    between atoms: _266  and  _267
REMARK  108  A    between atoms: _272  and  _274
REMARK  109  A    between atoms: _274  and  _275
REMARK  110  A    between atoms: _274  and  _277
REMARK  111  A    between atoms: _277  and  _278
REMARK  112  A    between atoms: _281  and  _283
REMARK  113  A    between atoms: _283  and  _284
REMARK  114  A    between atoms: _283  and  _286
REMARK  115  A    between atoms: _286  and  _287
REMARK  116  A    between atoms: _292  and  _293
REMARK  117  A    between atoms: _295  and  _297
REMARK  118  A    between atoms: _297  and  _298
REMARK  119  A    between atoms: _297  and  _300
REMARK  120  A    between atoms: _300  and  _301
REMARK  121  A    between atoms: _301  and  _302
REMARK  122  A    between atoms: _307  and  _309
REMARK  123  A    between atoms: _309  and  _310
REMARK  124  A    between atoms: _309  and  _312
REMARK  125  A    between atoms: _312  and  _313
REMARK  126  A    between atoms: _313  and  _314
REMARK  127  A    between atoms: _314  and  _315
REMARK  128  A    between atoms: _315  and  _316
REMARK  129  A    between atoms: _320  and  _322
REMARK  130  A    between atoms: _322  and  _323
REMARK  131  A    between atoms: _322  and  _325
REMARK  132  A    between atoms: _325  and  _326
REMARK  133  A    between atoms: _331  and  _332
REMARK  134  A    between atoms: _334  and  _336
REMARK  135  A    between atoms: _336  and  _337
REMARK  136  A    between atoms: _336  and  _339
REMARK  137  A    between atoms: _339  and  _340
REMARK  138  A    between atoms: _340  and  _341
REMARK  139  A    between atoms: _343  and  _345
REMARK  140  A    between atoms: _345  and  _346
REMARK  141  A    between atoms: _345  and  _348
REMARK  142  A    between atoms: _352  and  _353
REMARK  143  A    between atoms: _358  and  _360
REMARK  144  A    between atoms: _360  and  _361
REMARK  145  A    between atoms: _360  and  _363
REMARK  146  A    between atoms: _366  and  _368
REMARK  147  A    between atoms: _368  and  _369
REMARK  148  A    between atoms: _371  and  _373
REMARK  149  A    between atoms: _373  and  _374
REMARK  150  A    between atoms: _373  and  _376
REMARK  151  A    between atoms: _376  and  _377
REMARK  152  A    between atoms: _377  and  _378
REMARK  153  A    between atoms: _381  and  _383
REMARK  154  A    between atoms: _383  and  _384
REMARK  155  A    between atoms: _383  and  _386
REMARK  156  A    between atoms: _386  and  _387
REMARK  157  A    between atoms: _390  and  _392
REMARK  158  A    between atoms: _392  and  _393
REMARK  159  A    between atoms: _392  and  _395
REMARK  160  A    between atoms: _395  and  _396
REMARK  161  A    between atoms: _396  and  _397
REMARK  162  A    between atoms: _402  and  _404
REMARK  163  A    between atoms: _404  and  _405
REMARK  164  A    between atoms: _404  and  _407
REMARK  165  A    between atoms: _407  and  _408
REMARK  166  A    between atoms: _408  and  _409
REMARK  167  A    between atoms: _409  and  _410
REMARK  168  A    between atoms: _410  and  _411
REMARK  169  A    between atoms: _415  and  _417
REMARK  170  A    between atoms: _417  and  _418
REMARK  171  A    between atoms: _417  and  _420
REMARK  172  A    between atoms: _420  and  _421
REMARK  173  A    between atoms: _426  and  _428
REMARK  174  A    between atoms: _428  and  _429
REMARK  175  A    between atoms: _428  and  _431
REMARK  176  A    between atoms: _431  and  _432
REMARK  177  A    between atoms: _435  and  _437
REMARK  178  A    between atoms: _437  and  _438
REMARK  179  A    between atoms: _437  and  _440
REMARK  180  A    between atoms: _440  and  _441
REMARK  181  A    between atoms: _445  and  _446
REMARK  182  A    between atoms: _451  and  _453
REMARK  183  A    between atoms: _453  and  _454
REMARK  184  A    between atoms: _453  and  _456
REMARK  185  A    between atoms: _459  and  _461
REMARK  186  A    between atoms: _461  and  _462
REMARK  187  A    between atoms: _464  and  _466
REMARK  188  A    between atoms: _466  and  _467
REMARK  189  A    between atoms: _470  and  _472
REMARK  190  A    between atoms: _472  and  _473
REMARK  191  A    between atoms: _472  and  _475
REMARK  192  A    between atoms: _475  and  _476
REMARK  193  A    between atoms: _476  and  _477
REMARK  194  A    between atoms: _477  and  _478
REMARK  195  A    between atoms: _487  and  _489
REMARK  196  A    between atoms: _489  and  _490
REMARK  197  A    between atoms: _489  and  _492
REMARK  198  A    between atoms: _492  and  _493
REMARK  199  A    between atoms: _496  and  _498
REMARK  200  A    between atoms: _498  and  _499
REMARK  201  A    between atoms: _498  and  _501
REMARK  202  A    between atoms: _501  and  _502
REMARK  203  A    between atoms: _502  and  _503
REMARK  204  A    between atoms: _505  and  _507
REMARK  205  A    between atoms: _507  and  _508
REMARK  206  A    between atoms: _507  and  _510
REMARK  207  A    between atoms: _510  and  _511
REMARK  208  A    between atoms: _513  and  _515
REMARK  209  A    between atoms: _515  and  _516
REMARK  210  A    between atoms: _515  and  _518
REMARK  211  A    between atoms: _518  and  _519
REMARK  212  A    between atoms: _519  and  _520
REMARK  213  A    between atoms: _520  and  _521
REMARK  214  A    between atoms: _521  and  _522
REMARK  215  A    between atoms: _526  and  _528
REMARK  216  A    between atoms: _528  and  _529
REMARK  217  A    between atoms: _528  and  _531
REMARK  218  A    between atoms: _531  and  _532
REMARK  219  A    between atoms: _532  and  _533
REMARK  220  A    between atoms: _533  and  _534
REMARK  221  A    between atoms: _534  and  _535
REMARK  222  A    between atoms: _539  and  _541
REMARK  223  A    between atoms: _541  and  _542
REMARK  224  A    between atoms: _541  and  _544
REMARK  225  A    between atoms: _544  and  _545
REMARK  226  A    between atoms: _545  and  _546
REMARK  227  A    between atoms: _548  and  _550
REMARK  228  A    between atoms: _550  and  _551
REMARK  229  A    between atoms: _550  and  _553
REMARK  230  A    between atoms: _553  and  _554
REMARK  231  A    between atoms: _556  and  _558
REMARK  232  A    between atoms: _558  and  _559
REMARK  233  A    between atoms: _558  and  _561
REMARK  234  A    between atoms: _561  and  _562
REMARK  235  A    between atoms: _562  and  _563
REMARK  236  A    between atoms: _563  and  _564
REMARK  237  A    between atoms: _564  and  _565
REMARK  238  A    between atoms: _569  and  _571
REMARK  239  A    between atoms: _571  and  _572
REMARK  240  A    between atoms: _571  and  _574
REMARK  241  A    between atoms: _574  and  _575
REMARK  242  A    between atoms: _577  and  _579
REMARK  243  A    between atoms: _579  and  _580
REMARK  244  A    between atoms: _579  and  _582
REMARK  245  A    between atoms: _582  and  _583
REMARK  246  A    between atoms: _587  and  _588
REMARK  247  A    between atoms: _593  and  _595
REMARK  248  A    between atoms: _595  and  _596
REMARK  249  A    between atoms: _595  and  _598
REMARK  250  A    between atoms: _598  and  _599
REMARK  251  A    between atoms: _604  and  _605
REMARK  252  A    between atoms: _607  and  _609
REMARK  253  A    between atoms: _609  and  _610
REMARK  254  A    between atoms: _609  and  _612
REMARK  255  A    between atoms: _612  and  _613
REMARK                            x       y       z     vdW  Elec       q    Type
REMARK                         _______ _______ _______ _____ _____    ______ ____
ROOT
ATOM      1  C   THR A   1      41.991  17.128  43.751  0.00  0.00    +0.241 C 
ATOM      2  O   THR A   1      40.964  17.698  44.165  0.00  0.00    -0.274 OA
ATOM      3  N   VAL A   2      42.079  16.594  42.553  0.00  0.00    -0.298 N 
ATOM      4  H   VAL A   2      42.922  16.032  42.318  0.00  0.00    +0.150 HD
ENDROOT
BRANCH   1   5
ATOM      5  CA  THR A   1      43.189  16.834  44.651  0.00  0.00    +0.172 C 
BRANCH   5   6
ATOM      6  N   THR A   1      44.079  15.900  43.967  0.00  0.00    -0.236 NA
ATOM      7  H   THR A   1      44.994  16.232  43.600  0.00  0.00    +0.142 HD
ENDBRANCH   5   6
BRANCH   5   8
ATOM      8  CB  THR A   1      43.863  18.138  44.954  0.00  0.00    +0.135 C 
ATOM      9  CG2 THR A   1      45.016  17.918  45.869  0.00  0.00    +0.034 C 
BRANCH   8  10
ATOM     10  OG1 THR A   1      44.310  18.711  43.731  0.00  0.00    -0.383 OA
ATOM     11  HG1 THR A   1      44.948  18.094  43.293  0.00  0.00    +0.210 HD
ENDBRANCH   8  10
ENDBRANCH   5   8
ENDBRANCH   1   5
BRANCH   3  12
ATOM     12  CA  VAL A   2      41.049  16.757  41.548  0.00  0.00    +0.137 C 
BRANCH  12  13
ATOM     13  CB  VAL A   2      41.493  17.920  40.657  0.00  0.00    +0.026 C 
ATOM     14  CG2 VAL A   2      40.562  19.045  40.763  0.00  0.00    +0.002 C 
ATOM     15  CG1 VAL A   2      41.861  17.508  39.255  0.00  0.00    +0.002 C 
ENDBRANCH  12  13
BRANCH  12  16
ATOM     16  C   VAL A   2      40.961  15.410  40.815  0.00  0.00    +0.227 C 
ATOM     17  O   VAL A   2      41.931  14.669  40.782  0.00  0.00    -0.286 OA
ENDBRANCH  12  16
ENDBRANCH   3  12
TORSDOF 7
REMARK  Name = ../refined-set-2016/2ov4/2ov4_pocket.pdb
REMARK  255 active torsions:
REMARK  status: ('A' for Active; 'I' for Inactive)
REMARK    1  A    between atoms: _1  and  _3
REMARK    2  A    between atoms: _3  and  _4
REMARK    3  A    between atoms: _3  and  _6
REMARK    4  A    between atoms: _6  and  _7
REMARK    5  A    between atoms: _13  and  _15
REMARK    6  A    between atoms: _15  and  _16
REMARK    7  A    between atoms: _15  and  _18
REMARK    8  A    between atoms: _18  and  _19
REMARK    9  A    between atoms: _21  and  _23
REMARK   10  A    between atoms: _23  and  _24
REMARK   11  A    between atoms: _26  and  _28
REMARK   12  A    between atoms: _28  and  _29
REMARK   13  A    between atoms: _28  and  _31
REMARK   14  A    between atoms: _31  and  _32
REMARK   15  A    between atoms: _35  and  _37
REMARK   16  A    between atoms: _37  and  _38
REMARK   17  A    between atoms: _37  and  _40
REMARK   18  A    between atoms: _40  and  _41
REMARK   19  A    between atoms: _41  and  _42
REMARK   20  A    between atoms: _48  and  _49
REMARK   21  A    between atoms: _54  and  _56
REMARK   22  A    between atoms: _56  and  _57
REMARK   23  A    between atoms: _56  and  _59
REMARK   24  A    between atoms: _59  and  _60
REMARK   25  A    between atoms: _62  and  _64
REMARK   26  A    between atoms: _64  and  _65
REMARK   27  A    between atoms: _67  and  _69
REMARK   28  A    between atoms: _69  and  _70
REMARK   29  A    between atoms: _69  and  _72
REMARK   30  A    between atoms: _75  and  _77
REMARK   31  A    between atoms: _77  and  _78
REMARK   32  A    between atoms: _77  and  _80
REMARK   33  A    between atoms: _80  and  _81
REMARK   34  A    between atoms: _84  and  _86
REMARK   35  A    between atoms: _86  and  _87
REMARK   36  A    between atoms: _86  and  _89
REMARK   37  A    between atoms: _89  and  _90
REMARK   38  A    between atoms: _93  and  _95
REMARK   39  A    between atoms: _95  and  _96
REMARK   40  A    between atoms: _95  and  _98
REMARK   41  A    between atoms: _98  and  _99
REMARK   42  A    between atoms: _102  and  _104
REMARK   43  A    between atoms: _104  and  _105
REMARK   44  A    between atoms: _107  and  _109
REMARK   45  A    between atoms: _109  and  _110
REMARK   46  A    between atoms: _109  and  _112
REMARK   47  A    between atoms: _112  and  _113
REMARK   48  A    between atoms: _118  and  _120
REMARK   49  A    between atoms: _120  and  _121
REMARK   50  A    between atoms: _120  and  _123
REMARK   51  A    between atoms: _123  and  _124
REMARK   52  A    between atoms: _129  and  _130
REMARK   53  A    between atoms: _132  and  _134
REMARK   54  A    between atoms: _134  and  _135
REMARK   55  A    between atoms: _134  and  _137
REMARK   56  A    between atoms: _137  and  _138
REMARK   57  A    between atoms: _141  and  _143
REMARK   58  A    between atoms: _143  and  _144
REMARK   59  A    between atoms: _146  and  _148
REMARK   60  A    between atoms: _148  and  _149
REMARK   61  A    between atoms: _152  and  _154
REMARK   62  A    between atoms: _154  and  _155
REMARK   63  A    between atoms: _154  and  _157
REMARK   64  A    between atoms: _157  and  _158
REMARK   65  A    between atoms: _161  and  _163
REMARK   66  A    between atoms: _163  and  _164
REMARK   67  A    between atoms: _163  and  _166
REMARK   68  A    between atoms: _166  and  _167
REMARK   69  A    between atoms: _167  and  _168
REMARK   70  A    between atoms: _168  and  _169
REMARK   71  A    between atoms: _178  and  _180
REMARK   72  A    between atoms: _180  and  _181
REMARK   73  A    between atoms: _180  and  _183
REMARK   74  A    between atoms: _183  and  _184
REMARK   75  A    between atoms: _184  and  _185
REMARK   76  A    between atoms: _190  and  _192
REMARK   77  A    between atoms: _192  and  _193
REMARK   78  A    between atoms: _192  and  _195
REMARK   79  A    between atoms: _195  and  _196
REMARK   80  A    between atoms: _202  and  _204
REMARK   81  A    between atoms: _204  and  _205
REMARK   82  A    between atoms: _204  and  _207
REMARK   83  A    between atoms: _209  and  _211
REMARK   84  A    between atoms: _211  and  _212
REMARK   85  A    between atoms: _211  and  _214
REMARK   86  A    between atoms: _214  and  _215
REMARK   87  A    between atoms: _218  and  _220
REMARK   88  A    between atoms: _220  and  _221
REMARK   89  A    between atoms: _220  and  _223
REMARK   90  A    between atoms: _226  and  _228
REMARK   91  A    between atoms: _228  and  _229
REMARK   92  A    between atoms: _228  and  _231
REMARK   93  A    between atoms: _231  and  _232
REMARK   94  A    between atoms: _237  and  _239
REMARK   95  A    between atoms: _239  and  _240
REMARK   96  A    between atoms: _243  and  _245
REMARK   97  A    between atoms: _245  and  _246
REMARK   98  A    between atoms: _245  and  _248
REMARK   99  A    between atoms: _248  and  _249
REMARK  100  A    between atoms: _252  and  _254
REMARK  101  A    between atoms: _254  and  _255
REMARK  102  A    between atoms: _254  and  _257
REMARK  103  A    between atoms: _260  and  _262
REMARK  104  A    between atoms: _262  and  _263
REMARK  105  A    between atoms: _262  and  _265
REMARK  106  A    between atoms: _265  and  _266
REMARK  107  A    between atoms: _266  and  _267
REMARK  108  A    between atoms: _272  and  _274
REMARK  109  A    between atoms: _274  and  _275
REMARK  110  A    between atoms: _274  and  _277
REMARK  111  A    between atoms: _277  and  _278
REMARK  112  A    between atoms: _281  and  _283
REMARK  113  A    between atoms: _283  and  _284
REMARK  114  A    between atoms: _283  and  _286
REMARK  115  A    between atoms: _286  and  _287
REMARK  116  A    between atoms: _292  and  _293
REMARK  117  A    between atoms: _295  and  _297
REMARK  118  A    between atoms: _297  and  _298
REMARK  119  A    between atoms: _297  and  _300
REMARK  120  A    between atoms: _300  and  _301
REMARK  121  A    between atoms: _301  and  _302
REMARK  122  A    between atoms: _307  and  _309
REMARK  123  A    between atoms: _309  and  _310
REMARK  124  A    between atoms: _309  and  _312
REMARK  125  A    between atoms: _312  and  _313
REMARK  126  A    between atoms: _313  and  _314
REMARK  127  A    between atoms: _314  and  _315
REMARK  128  A    between atoms: _315  and  _316
REMARK  129  A    between atoms: _320  and  _322
REMARK  130  A    between atoms: _322  and  _323
REMARK  131  A    between atoms: _322  and  _325
REMARK  132  A    between atoms: _325  and  _326
REMARK  133  A    between atoms: _331  and  _332
REMARK  134  A    between atoms: _334  and  _336
REMARK  135  A    between atoms: _336  and  _337
REMARK  136  A    between atoms: _336  and  _339
REMARK  137  A    between atoms: _339  and  _340
REMARK  138  A    between atoms: _340  and  _341
REMARK  139  A    between atoms: _343  and  _345
REMARK  140  A    between atoms: _345  and  _346
REMARK  141  A    between atoms: _345  and  _348
REMARK  142  A    between atoms: _352  and  _353
REMARK  143  A    between atoms: _358  and  _360
REMARK  144  A    between atoms: _360  and  _361
REMARK  145  A    between atoms: _360  and  _363
REMARK  146  A    between atoms: _366  and  _368
REMARK  147  A    between atoms: _368  and  _369
REMARK  148  A    between atoms: _371  and  _373
REMARK  149  A    between atoms: _373  and  _374
REMARK  150  A    between atoms: _373  and  _376
REMARK  151  A    between atoms: _376  and  _377
REMARK  152  A    between atoms: _377  and  _378
REMARK  153  A    between atoms: _381  and  _383
REMARK  154  A    between atoms: _383  and  _384
REMARK  155  A    between atoms: _383  and  _386
REMARK  156  A    between atoms: _386  and  _387
REMARK  157  A    between atoms: _390  and  _392
REMARK  158  A    between atoms: _392  and  _393
REMARK  159  A    between atoms: _392  and  _395
REMARK  160  A    between atoms: _395  and  _396
REMARK  161  A    between atoms: _396  and  _397
REMARK  162  A    between atoms: _402  and  _404
REMARK  163  A    between atoms: _404  and  _405
REMARK  164  A    between atoms: _404  and  _407
REMARK  165  A    between atoms: _407  and  _408
REMARK  166  A    between atoms: _408  and  _409
REMARK  167  A    between atoms: _409  and  _410
REMARK  168  A    between atoms: _410  and  _411
REMARK  169  A    between atoms: _415  and  _417
REMARK  170  A    between atoms: _417  and  _418
REMARK  171  A    between atoms: _417  and  _420
REMARK  172  A    between atoms: _420  and  _421
REMARK  173  A    between atoms: _426  and  _428
REMARK  174  A    between atoms: _428  and  _429
REMARK  175  A    between atoms: _428  and  _431
REMARK  176  A    between atoms: _431  and  _432
REMARK  177  A    between atoms: _435  and  _437
REMARK  178  A    between atoms: _437  and  _438
REMARK  179  A    between atoms: _437  and  _440
REMARK  180  A    between atoms: _440  and  _441
REMARK  181  A    between atoms: _445  and  _446
REMARK  182  A    between atoms: _451  and  _453
REMARK  183  A    between atoms: _453  and  _454
REMARK  184  A    between atoms: _453  and  _456
REMARK  185  A    between atoms: _459  and  _461
REMARK  186  A    between atoms: _461  and  _462
REMARK  187  A    between atoms: _464  and  _466
REMARK  188  A    between atoms: _466  and  _467
REMARK  189  A    between atoms: _470  and  _472
REMARK  190  A    between atoms: _472  and  _473
REMARK  191  A    between atoms: _472  and  _475
REMARK  192  A    between atoms: _475  and  _476
REMARK  193  A    between atoms: _476  and  _477
REMARK  194  A    between atoms: _477  and  _478
REMARK  195  A    between atoms: _487  and  _489
REMARK  196  A    between atoms: _489  and  _490
REMARK  197  A    between atoms: _489  and  _492
REMARK  198  A    between atoms: _492  and  _493
REMARK  199  A    between atoms: _496  and  _498
REMARK  200  A    between atoms: _498  and  _499
REMARK  201  A    between atoms: _498  and  _501
REMARK  202  A    between atoms: _501  and  _502
REMARK  203  A    between atoms: _502  and  _503
REMARK  204  A    between atoms: _505  and  _507
REMARK  205  A    between atoms: _507  and  _508
REMARK  206  A    between atoms: _507  and  _510
REMARK  207  A    between atoms: _510  and  _511
REMARK  208  A    between atoms: _513  and  _515
REMARK  209  A    between atoms: _515  and  _516
REMARK  210  A    between atoms: _515  and  _518
REMARK  211  A    between atoms: _518  and  _519
REMARK  212  A    between atoms: _519  and  _520
REMARK  213  A    between atoms: _520  and  _521
REMARK  214  A    between atoms: _521  and  _522
REMARK  215  A    between atoms: _526  and  _528
REMARK  216  A    between atoms: _528  and  _529
REMARK  217  A    between atoms: _528  and  _531
REMARK  218  A    between atoms: _531  and  _532
REMARK  219  A    between atoms: _532  and  _533
REMARK  220  A    between atoms: _533  and  _534
REMARK  221  A    between atoms: _534  and  _535
REMARK  222  A    between atoms: _539  and  _541
REMARK  223  A    between atoms: _541  and  _542
REMARK  224  A    between atoms: _541  and  _544
REMARK  225  A    between atoms: _544  and  _545
REMARK  226  A    between atoms: _545  and  _546
REMARK  227  A    between atoms: _548  and  _550
REMARK  228  A    between atoms: _550  and  _551
REMARK  229  A    between atoms: _550  and  _553
REMARK  230  A    between atoms: _553  and  _554
REMARK  231  A    between atoms: _556  and  _558
REMARK  232  A    between atoms: _558  and  _559
REMARK  233  A    between atoms: _558  and  _561
REMARK  234  A    between atoms: _561  and  _562
REMARK  235  A    between atoms: _562  and  _563
REMARK  236  A    between atoms: _563  and  _564
REMARK  237  A    between atoms: _564  and  _565
REMARK  238  A    between atoms: _569  and  _571
REMARK  239  A    between atoms: _571  and  _572
REMARK  240  A    between atoms: _571  and  _574
REMARK  241  A    between atoms: _574  and  _575
REMARK  242  A    between atoms: _577  and  _579
REMARK  243  A    between atoms: _579  and  _580
REMARK  244  A    between atoms: _579  and  _582
REMARK  245  A    between atoms: _582  and  _583
REMARK  246  A    between atoms: _587  and  _588
REMARK  247  A    between atoms: _593  and  _595
REMARK  248  A    between atoms: _595  and  _596
REMARK  249  A    between atoms: _595  and  _598
REMARK  250  A    between atoms: _598  and  _599
REMARK  251  A    between atoms: _604  and  _605
REMARK  252  A    between atoms: _607  and  _609
REMARK  253  A    between atoms: _609  and  _610
REMARK  254  A    between atoms: _609  and  _612
REMARK  255  A    between atoms: _612  and  _613
REMARK                            x       y       z     vdW  Elec       q    Type
REMARK                         _______ _______ _______ _____ _____    ______ ____
ROOT
ATOM      1  CB  GLN A   1      43.478  11.646  38.208  0.00  0.00    +0.035 C 
ENDROOT
BRANCH   1   2
ATOM      2  CA  GLN A   1      42.083  11.759  37.510  0.00  0.00    +0.134 C 
BRANCH   2   3
ATOM      3  N   GLN A   1      41.088  12.218  38.461  0.00  0.00    -0.239 NA
ATOM      4  H   GLN A   1      40.685  11.524  39.122  0.00  0.00    +0.142 HD
ENDBRANCH   2   3
BRANCH   2   5
ATOM      5  C   GLN A   1      41.684  10.349  37.215  0.00  0.00    +0.224 C 
ATOM      6  O   GLN A   1      41.589   9.547  38.125  0.00  0.00    -0.287 OA
ENDBRANCH   2   5
ENDBRANCH   1   2
BRANCH   1   7
ATOM      7  CG  GLN A   1      44.140  12.941  38.646  0.00  0.00    +0.087 C 
BRANCH   7   8
ATOM      8  CD  GLN A   1      44.486  13.826  37.455  0.00  0.00    +0.219 C 
ATOM      9  NE2 GLN A   1      44.297  15.142  37.602  0.00  0.00    -0.329 N 
ATOM     10 HE21 GLN A   1      44.047  15.531  38.534  0.00  0.00    +0.145 HD
ATOM     11 HE22 GLN A   1      44.400  15.777  36.785  0.00  0.00    +0.145 HD
ATOM     12  OE1 GLN A   1      44.783  13.315  36.374  0.00  0.00    -0.275 OA
ENDBRANCH   7   8
ENDBRANCH   1   7
TORSDOF 5
REMARK  Name = ../refined-set-2016/2ov4/2ov4_pocket.pdb
REMARK  255 active torsions:
REMARK  status: ('A' for Active; 'I' for Inactive)
REMARK    1  A    between atoms: _1  and  _3
REMARK    2  A    between atoms: _3  and  _4
REMARK    3  A    between atoms: _3  and  _6
REMARK    4  A    between atoms: _6  and  _7
REMARK    5  A    between atoms: _13  and  _15
REMARK    6  A    between atoms: _15  and  _16
REMARK    7  A    between atoms: _15  and  _18
REMARK    8  A    between atoms: _18  and  _19
REMARK    9  A    between atoms: _21  and  _23
REMARK   10  A    between atoms: _23  and  _24
REMARK   11  A    between atoms: _26  and  _28
REMARK   12  A    between atoms: _28  and  _29
REMARK   13  A    between atoms: _28  and  _31
REMARK   14  A    between atoms: _31  and  _32
REMARK   15  A    between atoms: _35  and  _37
REMARK   16  A    between atoms: _37  and  _38
REMARK   17  A    between atoms: _37  and  _40
REMARK   18  A    between atoms: _40  and  _41
REMARK   19  A    between atoms: _41  and  _42
REMARK   20  A    between atoms: _48  and  _49
REMARK   21  A    between atoms: _54  and  _56
REMARK   22  A    between atoms: _56  and  _57
REMARK   23  A    between atoms: _56  and  _59
REMARK   24  A    between atoms: _59  and  _60
REMARK   25  A    between atoms: _62  and  _64
REMARK   26  A    between atoms: _64  and  _65
REMARK   27  A    between atoms: _67  and  _69
REMARK   28  A    between atoms: _69  and  _70
REMARK   29  A    between atoms: _69  and  _72
REMARK   30  A    between atoms: _75  and  _77
REMARK   31  A    between atoms: _77  and  _78
REMARK   32  A    between atoms: _77  and  _80
REMARK   33  A    between atoms: _80  and  _81
REMARK   34  A    between atoms: _84  and  _86
REMARK   35  A    between atoms: _86  and  _87
REMARK   36  A    between atoms: _86  and  _89
REMARK   37  A    between atoms: _89  and  _90
REMARK   38  A    between atoms: _93  and  _95
REMARK   39  A    between atoms: _95  and  _96
REMARK   40  A    between atoms: _95  and  _98
REMARK   41  A    between atoms: _98  and  _99
REMARK   42  A    between atoms: _102  and  _104
REMARK   43  A    between atoms: _104  and  _105
REMARK   44  A    between atoms: _107  and  _109
REMARK   45  A    between atoms: _109  and  _110
REMARK   46  A    between atoms: _109  and  _112
REMARK   47  A    between atoms: _112  and  _113
REMARK   48  A    between atoms: _118  and  _120
REMARK   49  A    between atoms: _120  and  _121
REMARK   50  A    between atoms: _120  and  _123
REMARK   51  A    between atoms: _123  and  _124
REMARK   52  A    between atoms: _129  and  _130
REMARK   53  A    between atoms: _132  and  _134
REMARK   54  A    between atoms: _134  and  _135
REMARK   55  A    between atoms: _134  and  _137
REMARK   56  A    between atoms: _137  and  _138
REMARK   57  A    between atoms: _141  and  _143
REMARK   58  A    between atoms: _143  and  _144
REMARK   59  A    between atoms: _146  and  _148
REMARK   60  A    between atoms: _148  and  _149
REMARK   61  A    between atoms: _152  and  _154
REMARK   62  A    between atoms: _154  and  _155
REMARK   63  A    between atoms: _154  and  _157
REMARK   64  A    between atoms: _157  and  _158
REMARK   65  A    between atoms: _161  and  _163
REMARK   66  A    between atoms: _163  and  _164
REMARK   67  A    between atoms: _163  and  _166
REMARK   68  A    between atoms: _166  and  _167
REMARK   69  A    between atoms: _167  and  _168
REMARK   70  A    between atoms: _168  and  _169
REMARK   71  A    between atoms: _178  and  _180
REMARK   72  A    between atoms: _180  and  _181
REMARK   73  A    between atoms: _180  and  _183
REMARK   74  A    between atoms: _183  and  _184
REMARK   75  A    between atoms: _184  and  _185
REMARK   76  A    between atoms: _190  and  _192
REMARK   77  A    between atoms: _192  and  _193
REMARK   78  A    between atoms: _192  and  _195
REMARK   79  A    between atoms: _195  and  _196
REMARK   80  A    between atoms: _202  and  _204
REMARK   81  A    between atoms: _204  and  _205
REMARK   82  A    between atoms: _204  and  _207
REMARK   83  A    between atoms: _209  and  _211
REMARK   84  A    between atoms: _211  and  _212
REMARK   85  A    between atoms: _211  and  _214
REMARK   86  A    between atoms: _214  and  _215
REMARK   87  A    between atoms: _218  and  _220
REMARK   88  A    between atoms: _220  and  _221
REMARK   89  A    between atoms: _220  and  _223
REMARK   90  A    between atoms: _226  and  _228
REMARK   91  A    between atoms: _228  and  _229
REMARK   92  A    between atoms: _228  and  _231
REMARK   93  A    between atoms: _231  and  _232
REMARK   94  A    between atoms: _237  and  _239
REMARK   95  A    between atoms: _239  and  _240
REMARK   96  A    between atoms: _243  and  _245
REMARK   97  A    between atoms: _245  and  _246
REMARK   98  A    between atoms: _245  and  _248
REMARK   99  A    between atoms: _248  and  _249
REMARK  100  A    between atoms: _252  and  _254
REMARK  101  A    between atoms: _254  and  _255
REMARK  102  A    between atoms: _254  and  _257
REMARK  103  A    between atoms: _260  and  _262
REMARK  104  A    between atoms: _262  and  _263
REMARK  105  A    between atoms: _262  and  _265
REMARK  106  A    between atoms: _265  and  _266
REMARK  107  A    between atoms: _266  and  _267
REMARK  108  A    between atoms: _272  and  _274
REMARK  109  A    between atoms: _274  and  _275
REMARK  110  A    between atoms: _274  and  _277
REMARK  111  A    between atoms: _277  and  _278
REMARK  112  A    between atoms: _281  and  _283
REMARK  113  A    between atoms: _283  and  _284
REMARK  114  A    between atoms: _283  and  _286
REMARK  115  A    between atoms: _286  and  _287
REMARK  116  A    between atoms: _292  and  _293
REMARK  117  A    between atoms: _295  and  _297
REMARK  118  A    between atoms: _297  and  _298
REMARK  119  A    between atoms: _297  and  _300
REMARK  120  A    between atoms: _300  and  _301
REMARK  121  A    between atoms: _301  and  _302
REMARK  122  A    between atoms: _307  and  _309
REMARK  123  A    between atoms: _309  and  _310
REMARK  124  A    between atoms: _309  and  _312
REMARK  125  A    between atoms: _312  and  _313
REMARK  126  A    between atoms: _313  and  _314
REMARK  127  A    between atoms: _314  and  _315
REMARK  128  A    between atoms: _315  and  _316
REMARK  129  A    between atoms: _320  and  _322
REMARK  130  A    between atoms: _322  and  _323
REMARK  131  A    between atoms: _322  and  _325
REMARK  132  A    between atoms: _325  and  _326
REMARK  133  A    between atoms: _331  and  _332
REMARK  134  A    between atoms: _334  and  _336
REMARK  135  A    between atoms: _336  and  _337
REMARK  136  A    between atoms: _336  and  _339
REMARK  137  A    between atoms: _339  and  _340
REMARK  138  A    between atoms: _340  and  _341
REMARK  139  A    between atoms: _343  and  _345
REMARK  140  A    between atoms: _345  and  _346
REMARK  141  A    between atoms: _345  and  _348
REMARK  142  A    between atoms: _352  and  _353
REMARK  143  A    between atoms: _358  and  _360
REMARK  144  A    between atoms: _360  and  _361
REMARK  145  A    between atoms: _360  and  _363
REMARK  146  A    between atoms: _366  and  _368
REMARK  147  A    between atoms: _368  and  _369
REMARK  148  A    between atoms: _371  and  _373
REMARK  149  A    between atoms: _373  and  _374
REMARK  150  A    between atoms: _373  and  _376
REMARK  151  A    between atoms: _376  and  _377
REMARK  152  A    between atoms: _377  and  _378
REMARK  153  A    between atoms: _381  and  _383
REMARK  154  A    between atoms: _383  and  _384
REMARK  155  A    between atoms: _383  and  _386
REMARK  156  A    between atoms: _386  and  _387
REMARK  157  A    between atoms: _390  and  _392
REMARK  158  A    between atoms: _392  and  _393
REMARK  159  A    between atoms: _392  and  _395
REMARK  160  A    between atoms: _395  and  _396
REMARK  161  A    between atoms: _396  and  _397
REMARK  162  A    between atoms: _402  and  _404
REMARK  163  A    between atoms: _404  and  _405
REMARK  164  A    between atoms: _404  and  _407
REMARK  165  A    between atoms: _407  and  _408
REMARK  166  A    between atoms: _408  and  _409
REMARK  167  A    between atoms: _409  and  _410
REMARK  168  A    between atoms: _410  and  _411
REMARK  169  A    between atoms: _415  and  _417
REMARK  170  A    between atoms: _417  and  _418
REMARK  171  A    between atoms: _417  and  _420
REMARK  172  A    between atoms: _420  and  _421
REMARK  173  A    between atoms: _426  and  _428
REMARK  174  A    between atoms: _428  and  _429
REMARK  175  A    between atoms: _428  and  _431
REMARK  176  A    between atoms: _431  and  _432
REMARK  177  A    between atoms: _435  and  _437
REMARK  178  A    between atoms: _437  and  _438
REMARK  179  A    between atoms: _437  and  _440
REMARK  180  A    between atoms: _440  and  _441
REMARK  181  A    between atoms: _445  and  _446
REMARK  182  A    between atoms: _451  and  _453
REMARK  183  A    between atoms: _453  and  _454
REMARK  184  A    between atoms: _453  and  _456
REMARK  185  A    between atoms: _459  and  _461
REMARK  186  A    between atoms: _461  and  _462
REMARK  187  A    between atoms: _464  and  _466
REMARK  188  A    between atoms: _466  and  _467
REMARK  189  A    between atoms: _470  and  _472
REMARK  190  A    between atoms: _472  and  _473
REMARK  191  A    between atoms: _472  and  _475
REMARK  192  A    between atoms: _475  and  _476
REMARK  193  A    between atoms: _476  and  _477
REMARK  194  A    between atoms: _477  and  _478
REMARK  195  A    between atoms: _487  and  _489
REMARK  196  A    between atoms: _489  and  _490
REMARK  197  A    between atoms: _489  and  _492
REMARK  198  A    between atoms: _492  and  _493
REMARK  199  A    between atoms: _496  and  _498
REMARK  200  A    between atoms: _498  and  _499
REMARK  201  A    between atoms: _498  and  _501
REMARK  202  A    between atoms: _501  and  _502
REMARK  203  A    between atoms: _502  and  _503
REMARK  204  A    between atoms: _505  and  _507
REMARK  205  A    between atoms: _507  and  _508
REMARK  206  A    between atoms: _507  and  _510
REMARK  207  A    between atoms: _510  and  _511
REMARK  208  A    between atoms: _513  and  _515
REMARK  209  A    between atoms: _515  and  _516
REMARK  210  A    between atoms: _515  and  _518
REMARK  211  A    between atoms: _518  and  _519
REMARK  212  A    between atoms: _519  and  _520
REMARK  213  A    between atoms: _520  and  _521
REMARK  214  A    between atoms: _521  and  _522
REMARK  215  A    between atoms: _526  and  _528
REMARK  216  A    between atoms: _528  and  _529
REMARK  217  A    between atoms: _528  and  _531
REMARK  218  A    between atoms: _531  and  _532
REMARK  219  A    between atoms: _532  and  _533
REMARK  220  A    between atoms: _533  and  _534
REMARK  221  A    between atoms: _534  and  _535
REMARK  222  A    between atoms: _539  and  _541
REMARK  223  A    between atoms: _541  and  _542
REMARK  224  A    between atoms: _541  and  _544
REMARK  225  A    between atoms: _544  and  _545
REMARK  226  A    between atoms: _545  and  _546
REMARK  227  A    between atoms: _548  and  _550
REMARK  228  A    between atoms: _550  and  _551
REMARK  229  A    between atoms: _550  and  _553
REMARK  230  A    between atoms: _553  and  _554
REMARK  231  A    between atoms: _556  and  _558
REMARK  232  A    between atoms: _558  and  _559
REMARK  233  A    between atoms: _558  and  _561
REMARK  234  A    between atoms: _561  and  _562
REMARK  235  A    between atoms: _562  and  _563
REMARK  236  A    between atoms: _563  and  _564
REMARK  237  A    between atoms: _564  and  _565
REMARK  238  A    between atoms: _569  and  _571
REMARK  239  A    between atoms: _571  and  _572
REMARK  240  A    between atoms: _571  and  _574
REMARK  241  A    between atoms: _574  and  _575
REMARK  242  A    between atoms: _577  and  _579
REMARK  243  A    between atoms: _579  and  _580
REMARK  244  A    between atoms: _579  and  _582
REMARK  245  A    between atoms: _582  and  _583
REMARK  246  A    between atoms: _587  and  _588
REMARK  247  A    between atoms: _593  and  _595
REMARK  248  A    between atoms: _595  and  _596
REMARK  249  A    between atoms: _595  and  _598
REMARK  250  A    between atoms: _598  and  _599
REMARK  251  A    between atoms: _604  and  _605
REMARK  252  A    between atoms: _607  and  _609
REMARK  253  A    between atoms: _609  and  _610
REMARK  254  A    between atoms: _609  and  _612
REMARK  255  A    between atoms: _612  and  _613
REMARK                            x       y       z     vdW  Elec       q    Type
REMARK                         _______ _______ _______ _____ _____    ______ ____
ROOT
ATOM      1  CA  LEU A   1      56.440  13.375  32.864  0.00  0.00    +0.133 C 
ENDROOT
BRANCH   1   2
ATOM      2  N   LEU A   1      55.840  12.157  32.273  0.00  0.00    -0.239 NA
ATOM      3  H   LEU A   1      55.068  11.693  32.792  0.00  0.00    +0.142 HD
ENDBRANCH   1   2
BRANCH   1   4
ATOM      4  C   LEU A   1      57.889  13.095  33.255  0.00  0.00    +0.224 C 
ATOM      5  O   LEU A   1      58.810  13.904  32.993  0.00  0.00    -0.287 OA
ENDBRANCH   1   4
BRANCH   1   6
ATOM      6  CB  LEU A   1      55.658  13.788  34.110  0.00  0.00    +0.025 C 
BRANCH   6   7
ATOM      7  CG  LEU A   1      56.214  14.974  34.910  0.00  0.00    +0.002 C 
ATOM      8  CD2 LEU A   1      55.419  15.206  36.185  0.00  0.00    +0.000 C 
ATOM      9  CD1 LEU A   1      56.299  16.278  34.053  0.00  0.00    +0.000 C 
ENDBRANCH   6   7
ENDBRANCH   1   6
TORSDOF 4
REMARK  Name = ../refined-set-2016/2ov4/2ov4_pocket.pdb
REMARK  255 active torsions:
REMARK  status: ('A' for Active; 'I' for Inactive)
REMARK    1  A    between atoms: _1  and  _3
REMARK    2  A    between atoms: _3  and  _4
REMARK    3  A    between atoms: _3  and  _6
REMARK    4  A    between atoms: _6  and  _7
REMARK    5  A    between atoms: _13  and  _15
REMARK    6  A    between atoms: _15  and  _16
REMARK    7  A    between atoms: _15  and  _18
REMARK    8  A    between atoms: _18  and  _19
REMARK    9  A    between atoms: _21  and  _23
REMARK   10  A    between atoms: _23  and  _24
REMARK   11  A    between atoms: _26  and  _28
REMARK   12  A    between atoms: _28  and  _29
REMARK   13  A    between atoms: _28  and  _31
REMARK   14  A    between atoms: _31  and  _32
REMARK   15  A    between atoms: _35  and  _37
REMARK   16  A    between atoms: _37  and  _38
REMARK   17  A    between atoms: _37  and  _40
REMARK   18  A    between atoms: _40  and  _41
REMARK   19  A    between atoms: _41  and  _42
REMARK   20  A    between atoms: _48  and  _49
REMARK   21  A    between atoms: _54  and  _56
REMARK   22  A    between atoms: _56  and  _57
REMARK   23  A    between atoms: _56  and  _59
REMARK   24  A    between atoms: _59  and  _60
REMARK   25  A    between atoms: _62  and  _64
REMARK   26  A    between atoms: _64  and  _65
REMARK   27  A    between atoms: _67  and  _69
REMARK   28  A    between atoms: _69  and  _70
REMARK   29  A    between atoms: _69  and  _72
REMARK   30  A    between atoms: _75  and  _77
REMARK   31  A    between atoms: _77  and  _78
REMARK   32  A    between atoms: _77  and  _80
REMARK   33  A    between atoms: _80  and  _81
REMARK   34  A    between atoms: _84  and  _86
REMARK   35  A    between atoms: _86  and  _87
REMARK   36  A    between atoms: _86  and  _89
REMARK   37  A    between atoms: _89  and  _90
REMARK   38  A    between atoms: _93  and  _95
REMARK   39  A    between atoms: _95  and  _96
REMARK   40  A    between atoms: _95  and  _98
REMARK   41  A    between atoms: _98  and  _99
REMARK   42  A    between atoms: _102  and  _104
REMARK   43  A    between atoms: _104  and  _105
REMARK   44  A    between atoms: _107  and  _109
REMARK   45  A    between atoms: _109  and  _110
REMARK   46  A    between atoms: _109  and  _112
REMARK   47  A    between atoms: _112  and  _113
REMARK   48  A    between atoms: _118  and  _120
REMARK   49  A    between atoms: _120  and  _121
REMARK   50  A    between atoms: _120  and  _123
REMARK   51  A    between atoms: _123  and  _124
REMARK   52  A    between atoms: _129  and  _130
REMARK   53  A    between atoms: _132  and  _134
REMARK   54  A    between atoms: _134  and  _135
REMARK   55  A    between atoms: _134  and  _137
REMARK   56  A    between atoms: _137  and  _138
REMARK   57  A    between atoms: _141  and  _143
REMARK   58  A    between atoms: _143  and  _144
REMARK   59  A    between atoms: _146  and  _148
REMARK   60  A    between atoms: _148  and  _149
REMARK   61  A    between atoms: _152  and  _154
REMARK   62  A    between atoms: _154  and  _155
REMARK   63  A    between atoms: _154  and  _157
REMARK   64  A    between atoms: _157  and  _158
REMARK   65  A    between atoms: _161  and  _163
REMARK   66  A    between atoms: _163  and  _164
REMARK   67  A    between atoms: _163  and  _166
REMARK   68  A    between atoms: _166  and  _167
REMARK   69  A    between atoms: _167  and  _168
REMARK   70  A    between atoms: _168  and  _169
REMARK   71  A    between atoms: _178  and  _180
REMARK   72  A    between atoms: _180  and  _181
REMARK   73  A    between atoms: _180  and  _183
REMARK   74  A    between atoms: _183  and  _184
REMARK   75  A    between atoms: _184  and  _185
REMARK   76  A    between atoms: _190  and  _192
REMARK   77  A    between atoms: _192  and  _193
REMARK   78  A    between atoms: _192  and  _195
REMARK   79  A    between atoms: _195  and  _196
REMARK   80  A    between atoms: _202  and  _204
REMARK   81  A    between atoms: _204  and  _205
REMARK   82  A    between atoms: _204  and  _207
REMARK   83  A    between atoms: _209  and  _211
REMARK   84  A    between atoms: _211  and  _212
REMARK   85  A    between atoms: _211  and  _214
REMARK   86  A    between atoms: _214  and  _215
REMARK   87  A    between atoms: _218  and  _220
REMARK   88  A    between atoms: _220  and  _221
REMARK   89  A    between atoms: _220  and  _223
REMARK   90  A    between atoms: _226  and  _228
REMARK   91  A    between atoms: _228  and  _229
REMARK   92  A    between atoms: _228  and  _231
REMARK   93  A    between atoms: _231  and  _232
REMARK   94  A    between atoms: _237  and  _239
REMARK   95  A    between atoms: _239  and  _240
REMARK   96  A    between atoms: _243  and  _245
REMARK   97  A    between atoms: _245  and  _246
REMARK   98  A    between atoms: _245  and  _248
REMARK   99  A    between atoms: _248  and  _249
REMARK  100  A    between atoms: _252  and  _254
REMARK  101  A    between atoms: _254  and  _255
REMARK  102  A    between atoms: _254  and  _257
REMARK  103  A    between atoms: _260  and  _262
REMARK  104  A    between atoms: _262  and  _263
REMARK  105  A    between atoms: _262  and  _265
REMARK  106  A    between atoms: _265  and  _266
REMARK  107  A    between atoms: _266  and  _267
REMARK  108  A    between atoms: _272  and  _274
REMARK  109  A    between atoms: _274  and  _275
REMARK  110  A    between atoms: _274  and  _277
REMARK  111  A    between atoms: _277  and  _278
REMARK  112  A    between atoms: _281  and  _283
REMARK  113  A    between atoms: _283  and  _284
REMARK  114  A    between atoms: _283  and  _286
REMARK  115  A    between atoms: _286  and  _287
REMARK  116  A    between atoms: _292  and  _293
REMARK  117  A    between atoms: _295  and  _297
REMARK  118  A    between atoms: _297  and  _298
REMARK  119  A    between atoms: _297  and  _300
REMARK  120  A    between atoms: _300  and  _301
REMARK  121  A    between atoms: _301  and  _302
REMARK  122  A    between atoms: _307  and  _309
REMARK  123  A    between atoms: _309  and  _310
REMARK  124  A    between atoms: _309  and  _312
REMARK  125  A    between atoms: _312  and  _313
REMARK  126  A    between atoms: _313  and  _314
REMARK  127  A    between atoms: _314  and  _315
REMARK  128  A    between atoms: _315  and  _316
REMARK  129  A    between atoms: _320  and  _322
REMARK  130  A    between atoms: _322  and  _323
REMARK  131  A    between atoms: _322  and  _325
REMARK  132  A    between atoms: _325  and  _326
REMARK  133  A    between atoms: _331  and  _332
REMARK  134  A    between atoms: _334  and  _336
REMARK  135  A    between atoms: _336  and  _337
REMARK  136  A    between atoms: _336  and  _339
REMARK  137  A    between atoms: _339  and  _340
REMARK  138  A    between atoms: _340  and  _341
REMARK  139  A    between atoms: _343  and  _345
REMARK  140  A    between atoms: _345  and  _346
REMARK  141  A    between atoms: _345  and  _348
REMARK  142  A    between atoms: _352  and  _353
REMARK  143  A    between atoms: _358  and  _360
REMARK  144  A    between atoms: _360  and  _361
REMARK  145  A    between atoms: _360  and  _363
REMARK  146  A    between atoms: _366  and  _368
REMARK  147  A    between atoms: _368  and  _369
REMARK  148  A    between atoms: _371  and  _373
REMARK  149  A    between atoms: _373  and  _374
REMARK  150  A    between atoms: _373  and  _376
REMARK  151  A    between atoms: _376  and  _377
REMARK  152  A    between atoms: _377  and  _378
REMARK  153  A    between atoms: _381  and  _383
REMARK  154  A    between atoms: _383  and  _384
REMARK  155  A    between atoms: _383  and  _386
REMARK  156  A    between atoms: _386  and  _387
REMARK  157  A    between atoms: _390  and  _392
REMARK  158  A    between atoms: _392  and  _393
REMARK  159  A    between atoms: _392  and  _395
REMARK  160  A    between atoms: _395  and  _396
REMARK  161  A    between atoms: _396  and  _397
REMARK  162  A    between atoms: _402  and  _404
REMARK  163  A    between atoms: _404  and  _405
REMARK  164  A    between atoms: _404  and  _407
REMARK  165  A    between atoms: _407  and  _408
REMARK  166  A    between atoms: _408  and  _409
REMARK  167  A    between atoms: _409  and  _410
REMARK  168  A    between atoms: _410  and  _411
REMARK  169  A    between atoms: _415  and  _417
REMARK  170  A    between atoms: _417  and  _418
REMARK  171  A    between atoms: _417  and  _420
REMARK  172  A    between atoms: _420  and  _421
REMARK  173  A    between atoms: _426  and  _428
REMARK  174  A    between atoms: _428  and  _429
REMARK  175  A    between atoms: _428  and  _431
REMARK  176  A    between atoms: _431  and  _432
REMARK  177  A    between atoms: _435  and  _437
REMARK  178  A    between atoms: _437  and  _438
REMARK  179  A    between atoms: _437  and  _440
REMARK  180  A    between atoms: _440  and  _441
REMARK  181  A    between atoms: _445  and  _446
REMARK  182  A    between atoms: _451  and  _453
REMARK  183  A    between atoms: _453  and  _454
REMARK  184  A    between atoms: _453  and  _456
REMARK  185  A    between atoms: _459  and  _461
REMARK  186  A    between atoms: _461  and  _462
REMARK  187  A    between atoms: _464  and  _466
REMARK  188  A    between atoms: _466  and  _467
REMARK  189  A    between atoms: _470  and  _472
REMARK  190  A    between atoms: _472  and  _473
REMARK  191  A    between atoms: _472  and  _475
REMARK  192  A    between atoms: _475  and  _476
REMARK  193  A    between atoms: _476  and  _477
REMARK  194  A    between atoms: _477  and  _478
REMARK  195  A    between atoms: _487  and  _489
REMARK  196  A    between atoms: _489  and  _490
REMARK  197  A    between atoms: _489  and  _492
REMARK  198  A    between atoms: _492  and  _493
REMARK  199  A    between atoms: _496  and  _498
REMARK  200  A    between atoms: _498  and  _499
REMARK  201  A    between atoms: _498  and  _501
REMARK  202  A    between atoms: _501  and  _502
REMARK  203  A    between atoms: _502  and  _503
REMARK  204  A    between atoms: _505  and  _507
REMARK  205  A    between atoms: _507  and  _508
REMARK  206  A    between atoms: _507  and  _510
REMARK  207  A    between atoms: _510  and  _511
REMARK  208  A    between atoms: _513  and  _515
REMARK  209  A    between atoms: _515  and  _516
REMARK  210  A    between atoms: _515  and  _518
REMARK  211  A    between atoms: _518  and  _519
REMARK  212  A    between atoms: _519  and  _520
REMARK  213  A    between atoms: _520  and  _521
REMARK  214  A    between atoms: _521  and  _522
REMARK  215  A    between atoms: _526  and  _528
REMARK  216  A    between atoms: _528  and  _529
REMARK  217  A    between atoms: _528  and  _531
REMARK  218  A    between atoms: _531  and  _532
REMARK  219  A    between atoms: _532  and  _533
REMARK  220  A    between atoms: _533  and  _534
REMARK  221  A    between atoms: _534  and  _535
REMARK  222  A    between atoms: _539  and  _541
REMARK  223  A    between atoms: _541  and  _542
REMARK  224  A    between atoms: _541  and  _544
REMARK  225  A    between atoms: _544  and  _545
REMARK  226  A    between atoms: _545  and  _546
REMARK  227  A    between atoms: _548  and  _550
REMARK  228  A    between atoms: _550  and  _551
REMARK  229  A    between atoms: _550  and  _553
REMARK  230  A    between atoms: _553  and  _554
REMARK  231  A    between atoms: _556  and  _558
REMARK  232  A    between atoms: _558  and  _559
REMARK  233  A    between atoms: _558  and  _561
REMARK  234  A    between atoms: _561  and  _562
REMARK  235  A    between atoms: _562  and  _563
REMARK  236  A    between atoms: _563  and  _564
REMARK  237  A    between atoms: _564  and  _565
REMARK  238  A    between atoms: _569  and  _571
REMARK  239  A    between atoms: _571  and  _572
REMARK  240  A    between atoms: _571  and  _574
REMARK  241  A    between atoms: _574  and  _575
REMARK  242  A    between atoms: _577  and  _579
REMARK  243  A    between atoms: _579  and  _580
REMARK  244  A    between atoms: _579  and  _582
REMARK  245  A    between atoms: _582  and  _583
REMARK  246  A    between atoms: _587  and  _588
REMARK  247  A    between atoms: _593  and  _595
REMARK  248  A    between atoms: _595  and  _596
REMARK  249  A    between atoms: _595  and  _598
REMARK  250  A    between atoms: _598  and  _599
REMARK  251  A    between atoms: _604  and  _605
REMARK  252  A    between atoms: _607  and  _609
REMARK  253  A    between atoms: _609  and  _610
REMARK  254  A    between atoms: _609  and  _612
REMARK  255  A    between atoms: _612  and  _613
REMARK                            x       y       z     vdW  Elec       q    Type
REMARK                         _______ _______ _______ _____ _____    ______ ____
ROOT
ATOM      1  CG  TYR A   1      61.041  15.842  35.101  0.00  0.00    -0.020 A 
ATOM      2  CD2 TYR A   1      60.038  15.362  35.930  0.00  0.00    -0.001 A 
ATOM      3  CE2 TYR A   1      59.479  16.137  36.948  0.00  0.00    +0.036 A 
ATOM      4  CZ  TYR A   1      59.936  17.412  37.146  0.00  0.00    +0.134 A 
ATOM      5  CE1 TYR A   1      60.923  17.930  36.321  0.00  0.00    +0.036 A 
ATOM      6  CD1 TYR A   1      61.485  17.133  35.310  0.00  0.00    -0.001 A 
ENDROOT
BRANCH   4   7
ATOM      7  OH  TYR A   1      59.432  18.159  38.189  0.00  0.00    -0.506 OA
ATOM      8  HH  TYR A   1      59.618  17.697  39.045  0.00  0.00    +0.292 HD
ENDBRANCH   4   7
BRANCH   1   9
ATOM      9  CB  TYR A   1      61.699  14.935  34.083  0.00  0.00    +0.051 C 
BRANCH   9  10
ATOM     10  CA  TYR A   1      61.954  15.539  32.683  0.00  0.00    +0.137 C 
BRANCH  10  11
ATOM     11  N   TYR A   1      60.973  14.993  31.726  0.00  0.00    -0.239 NA
ATOM     12  H   TYR A   1      60.143  14.488  32.098  0.00  0.00    +0.142 HD
ENDBRANCH  10  11
BRANCH  10  13
ATOM     13  C   TYR A   1      63.379  15.160  32.176  0.00  0.00    +0.224 C 
ATOM     14  O   TYR A   1      64.201  16.041  31.917  0.00  0.00    -0.287 OA
ENDBRANCH  10  13
ENDBRANCH   9  10
ENDBRANCH   1   9
TORSDOF 5
REMARK  Name = ../refined-set-2016/2ov4/2ov4_pocket.pdb
REMARK  255 active torsions:
REMARK  status: ('A' for Active; 'I' for Inactive)
REMARK    1  A    between atoms: _1  and  _3
REMARK    2  A    between atoms: _3  and  _4
REMARK    3  A    between atoms: _3  and  _6
REMARK    4  A    between atoms: _6  and  _7
REMARK    5  A    between atoms: _13  and  _15
REMARK    6  A    between atoms: _15  and  _16
REMARK    7  A    between atoms: _15  and  _18
REMARK    8  A    between atoms: _18  and  _19
REMARK    9  A    between atoms: _21  and  _23
REMARK   10  A    between atoms: _23  and  _24
REMARK   11  A    between atoms: _26  and  _28
REMARK   12  A    between atoms: _28  and  _29
REMARK   13  A    between atoms: _28  and  _31
REMARK   14  A    between atoms: _31  and  _32
REMARK   15  A    between atoms: _35  and  _37
REMARK   16  A    between atoms: _37  and  _38
REMARK   17  A    between atoms: _37  and  _40
REMARK   18  A    between atoms: _40  and  _41
REMARK   19  A    between atoms: _41  and  _42
REMARK   20  A    between atoms: _48  and  _49
REMARK   21  A    between atoms: _54  and  _56
REMARK   22  A    between atoms: _56  and  _57
REMARK   23  A    between atoms: _56  and  _59
REMARK   24  A    between atoms: _59  and  _60
REMARK   25  A    between atoms: _62  and  _64
REMARK   26  A    between atoms: _64  and  _65
REMARK   27  A    between atoms: _67  and  _69
REMARK   28  A    between atoms: _69  and  _70
REMARK   29  A    between atoms: _69  and  _72
REMARK   30  A    between atoms: _75  and  _77
REMARK   31  A    between atoms: _77  and  _78
REMARK   32  A    between atoms: _77  and  _80
REMARK   33  A    between atoms: _80  and  _81
REMARK   34  A    between atoms: _84  and  _86
REMARK   35  A    between atoms: _86  and  _87
REMARK   36  A    between atoms: _86  and  _89
REMARK   37  A    between atoms: _89  and  _90
REMARK   38  A    between atoms: _93  and  _95
REMARK   39  A    between atoms: _95  and  _96
REMARK   40  A    between atoms: _95  and  _98
REMARK   41  A    between atoms: _98  and  _99
REMARK   42  A    between atoms: _102  and  _104
REMARK   43  A    between atoms: _104  and  _105
REMARK   44  A    between atoms: _107  and  _109
REMARK   45  A    between atoms: _109  and  _110
REMARK   46  A    between atoms: _109  and  _112
REMARK   47  A    between atoms: _112  and  _113
REMARK   48  A    between atoms: _118  and  _120
REMARK   49  A    between atoms: _120  and  _121
REMARK   50  A    between atoms: _120  and  _123
REMARK   51  A    between atoms: _123  and  _124
REMARK   52  A    between atoms: _129  and  _130
REMARK   53  A    between atoms: _132  and  _134
REMARK   54  A    between atoms: _134  and  _135
REMARK   55  A    between atoms: _134  and  _137
REMARK   56  A    between atoms: _137  and  _138
REMARK   57  A    between atoms: _141  and  _143
REMARK   58  A    between atoms: _143  and  _144
REMARK   59  A    between atoms: _146  and  _148
REMARK   60  A    between atoms: _148  and  _149
REMARK   61  A    between atoms: _152  and  _154
REMARK   62  A    between atoms: _154  and  _155
REMARK   63  A    between atoms: _154  and  _157
REMARK   64  A    between atoms: _157  and  _158
REMARK   65  A    between atoms: _161  and  _163
REMARK   66  A    between atoms: _163  and  _164
REMARK   67  A    between atoms: _163  and  _166
REMARK   68  A    between atoms: _166  and  _167
REMARK   69  A    between atoms: _167  and  _168
REMARK   70  A    between atoms: _168  and  _169
REMARK   71  A    between atoms: _178  and  _180
REMARK   72  A    between atoms: _180  and  _181
REMARK   73  A    between atoms: _180  and  _183
REMARK   74  A    between atoms: _183  and  _184
REMARK   75  A    between atoms: _184  and  _185
REMARK   76  A    between atoms: _190  and  _192
REMARK   77  A    between atoms: _192  and  _193
REMARK   78  A    between atoms: _192  and  _195
REMARK   79  A    between atoms: _195  and  _196
REMARK   80  A    between atoms: _202  and  _204
REMARK   81  A    between atoms: _204  and  _205
REMARK   82  A    between atoms: _204  and  _207
REMARK   83  A    between atoms: _209  and  _211
REMARK   84  A    between atoms: _211  and  _212
REMARK   85  A    between atoms: _211  and  _214
REMARK   86  A    between atoms: _214  and  _215
REMARK   87  A    between atoms: _218  and  _220
REMARK   88  A    between atoms: _220  and  _221
REMARK   89  A    between atoms: _220  and  _223
REMARK   90  A    between atoms: _226  and  _228
REMARK   91  A    between atoms: _228  and  _229
REMARK   92  A    between atoms: _228  and  _231
REMARK   93  A    between atoms: _231  and  _232
REMARK   94  A    between atoms: _237  and  _239
REMARK   95  A    between atoms: _239  and  _240
REMARK   96  A    between atoms: _243  and  _245
REMARK   97  A    between atoms: _245  and  _246
REMARK   98  A    between atoms: _245  and  _248
REMARK   99  A    between atoms: _248  and  _249
REMARK  100  A    between atoms: _252  and  _254
REMARK  101  A    between atoms: _254  and  _255
REMARK  102  A    between atoms: _254  and  _257
REMARK  103  A    between atoms: _260  and  _262
REMARK  104  A    between atoms: _262  and  _263
REMARK  105  A    between atoms: _262  and  _265
REMARK  106  A    between atoms: _265  and  _266
REMARK  107  A    between atoms: _266  and  _267
REMARK  108  A    between atoms: _272  and  _274
REMARK  109  A    between atoms: _274  and  _275
REMARK  110  A    between atoms: _274  and  _277
REMARK  111  A    between atoms: _277  and  _278
REMARK  112  A    between atoms: _281  and  _283
REMARK  113  A    between atoms: _283  and  _284
REMARK  114  A    between atoms: _283  and  _286
REMARK  115  A    between atoms: _286  and  _287
REMARK  116  A    between atoms: _292  and  _293
REMARK  117  A    between atoms: _295  and  _297
REMARK  118  A    between atoms: _297  and  _298
REMARK  119  A    between atoms: _297  and  _300
REMARK  120  A    between atoms: _300  and  _301
REMARK  121  A    between atoms: _301  and  _302
REMARK  122  A    between atoms: _307  and  _309
REMARK  123  A    between atoms: _309  and  _310
REMARK  124  A    between atoms: _309  and  _312
REMARK  125  A    between atoms: _312  and  _313
REMARK  126  A    between atoms: _313  and  _314
REMARK  127  A    between atoms: _314  and  _315
REMARK  128  A    between atoms: _315  and  _316
REMARK  129  A    between atoms: _320  and  _322
REMARK  130  A    between atoms: _322  and  _323
REMARK  131  A    between atoms: _322  and  _325
REMARK  132  A    between atoms: _325  and  _326
REMARK  133  A    between atoms: _331  and  _332
REMARK  134  A    between atoms: _334  and  _336
REMARK  135  A    between atoms: _336  and  _337
REMARK  136  A    between atoms: _336  and  _339
REMARK  137  A    between atoms: _339  and  _340
REMARK  138  A    between atoms: _340  and  _341
REMARK  139  A    between atoms: _343  and  _345
REMARK  140  A    between atoms: _345  and  _346
REMARK  141  A    between atoms: _345  and  _348
REMARK  142  A    between atoms: _352  and  _353
REMARK  143  A    between atoms: _358  and  _360
REMARK  144  A    between atoms: _360  and  _361
REMARK  145  A    between atoms: _360  and  _363
REMARK  146  A    between atoms: _366  and  _368
REMARK  147  A    between atoms: _368  and  _369
REMARK  148  A    between atoms: _371  and  _373
REMARK  149  A    between atoms: _373  and  _374
REMARK  150  A    between atoms: _373  and  _376
REMARK  151  A    between atoms: _376  and  _377
REMARK  152  A    between atoms: _377  and  _378
REMARK  153  A    between atoms: _381  and  _383
REMARK  154  A    between atoms: _383  and  _384
REMARK  155  A    between atoms: _383  and  _386
REMARK  156  A    between atoms: _386  and  _387
REMARK  157  A    between atoms: _390  and  _392
REMARK  158  A    between atoms: _392  and  _393
REMARK  159  A    between atoms: _392  and  _395
REMARK  160  A    between atoms: _395  and  _396
REMARK  161  A    between atoms: _396  and  _397
REMARK  162  A    between atoms: _402  and  _404
REMARK  163  A    between atoms: _404  and  _405
REMARK  164  A    between atoms: _404  and  _407
REMARK  165  A    between atoms: _407  and  _408
REMARK  166  A    between atoms: _408  and  _409
REMARK  167  A    between atoms: _409  and  _410
REMARK  168  A    between atoms: _410  and  _411
REMARK  169  A    between atoms: _415  and  _417
REMARK  170  A    between atoms: _417  and  _418
REMARK  171  A    between atoms: _417  and  _420
REMARK  172  A    between atoms: _420  and  _421
REMARK  173  A    between atoms: _426  and  _428
REMARK  174  A    between atoms: _428  and  _429
REMARK  175  A    between atoms: _428  and  _431
REMARK  176  A    between atoms: _431  and  _432
REMARK  177  A    between atoms: _435  and  _437
REMARK  178  A    between atoms: _437  and  _438
REMARK  179  A    between atoms: _437  and  _440
REMARK  180  A    between atoms: _440  and  _441
REMARK  181  A    between atoms: _445  and  _446
REMARK  182  A    between atoms: _451  and  _453
REMARK  183  A    between atoms: _453  and  _454
REMARK  184  A    between atoms: _453  and  _456
REMARK  185  A    between atoms: _459  and  _461
REMARK  186  A    between atoms: _461  and  _462
REMARK  187  A    between atoms: _464  and  _466
REMARK  188  A    between atoms: _466  and  _467
REMARK  189  A    between atoms: _470  and  _472
REMARK  190  A    between atoms: _472  and  _473
REMARK  191  A    between atoms: _472  and  _475
REMARK  192  A    between atoms: _475  and  _476
REMARK  193  A    between atoms: _476  and  _477
REMARK  194  A    between atoms: _477  and  _478
REMARK  195  A    between atoms: _487  and  _489
REMARK  196  A    between atoms: _489  and  _490
REMARK  197  A    between atoms: _489  and  _492
REMARK  198  A    between atoms: _492  and  _493
REMARK  199  A    between atoms: _496  and  _498
REMARK  200  A    between atoms: _498  and  _499
REMARK  201  A    between atoms: _498  and  _501
REMARK  202  A    between atoms: _501  and  _502
REMARK  203  A    between atoms: _502  and  _503
REMARK  204  A    between atoms: _505  and  _507
REMARK  205  A    between atoms: _507  and  _508
REMARK  206  A    between atoms: _507  and  _510
REMARK  207  A    between atoms: _510  and  _511
REMARK  208  A    between atoms: _513  and  _515
REMARK  209  A    between atoms: _515  and  _516
REMARK  210  A    between atoms: _515  and  _518
REMARK  211  A    between atoms: _518  and  _519
REMARK  212  A    between atoms: _519  and  _520
REMARK  213  A    between atoms: _520  and  _521
REMARK  214  A    between atoms: _521  and  _522
REMARK  215  A    between atoms: _526  and  _528
REMARK  216  A    between atoms: _528  and  _529
REMARK  217  A    between atoms: _528  and  _531
REMARK  218  A    between atoms: _531  and  _532
REMARK  219  A    between atoms: _532  and  _533
REMARK  220  A    between atoms: _533  and  _534
REMARK  221  A    between atoms: _534  and  _535
REMARK  222  A    between atoms: _539  and  _541
REMARK  223  A    between atoms: _541  and  _542
REMARK  224  A    between atoms: _541  and  _544
REMARK  225  A    between atoms: _544  and  _545
REMARK  226  A    between atoms: _545  and  _546
REMARK  227  A    between atoms: _548  and  _550
REMARK  228  A    between atoms: _550  and  _551
REMARK  229  A    between atoms: _550  and  _553
REMARK  230  A    between atoms: _553  and  _554
REMARK  231  A    between atoms: _556  and  _558
REMARK  232  A    between atoms: _558  and  _559
REMARK  233  A    between atoms: _558  and  _561
REMARK  234  A    between atoms: _561  and  _562
REMARK  235  A    between atoms: _562  and  _563
REMARK  236  A    between atoms: _563  and  _564
REMARK  237  A    between atoms: _564  and  _565
REMARK  238  A    between atoms: _569  and  _571
REMARK  239  A    between atoms: _571  and  _572
REMARK  240  A    between atoms: _571  and  _574
REMARK  241  A    between atoms: _574  and  _575
REMARK  242  A    between atoms: _577  and  _579
REMARK  243  A    between atoms: _579  and  _580
REMARK  244  A    between atoms: _579  and  _582
REMARK  245  A    between atoms: _582  and  _583
REMARK  246  A    between atoms: _587  and  _588
REMARK  247  A    between atoms: _593  and  _595
REMARK  248  A    between atoms: _595  and  _596
REMARK  249  A    between atoms: _595  and  _598
REMARK  250  A    between atoms: _598  and  _599
REMARK  251  A    between atoms: _604  and  _605
REMARK  252  A    between atoms: _607  and  _609
REMARK  253  A    between atoms: _609  and  _610
REMARK  254  A    between atoms: _609  and  _612
REMARK  255  A    between atoms: _612  and  _613
REMARK                            x       y       z     vdW  Elec       q    Type
REMARK                         _______ _______ _______ _____ _____    ______ ____
ROOT
ATOM      1  CB  GLN A   1      45.785  28.059  43.358  0.00  0.00    +0.035 C 
ENDROOT
BRANCH   1   2
ATOM      2  CA  GLN A   1      44.477  28.846  43.327  0.00  0.00    +0.134 C 
BRANCH   2   3
ATOM      3  N   GLN A   1      44.658  30.089  44.053  0.00  0.00    -0.239 NA
ATOM      4  H   GLN A   1      45.579  30.270  44.500  0.00  0.00    +0.142 HD
ENDBRANCH   2   3
BRANCH   2   5
ATOM      5  C   GLN A   1      43.311  28.021  43.871  0.00  0.00    +0.224 C 
ATOM      6  O   GLN A   1      42.695  27.253  43.147  0.00  0.00    -0.287 OA
ENDBRANCH   2   5
ENDBRANCH   1   2
BRANCH   1   7
ATOM      7  CG  GLN A   1      45.692  26.657  42.835  0.00  0.00    +0.087 C 
BRANCH   7   8
ATOM      8  CD  GLN A   1      47.043  26.133  42.426  0.00  0.00    +0.219 C 
ATOM      9  NE2 GLN A   1      47.205  24.817  42.473  0.00  0.00    -0.329 N 
ATOM     10 HE21 GLN A   1      46.424  24.208  42.790  0.00  0.00    +0.145 HD
ATOM     11 HE22 GLN A   1      48.113  24.394  42.192  0.00  0.00    +0.145 HD
ATOM     12  OE1 GLN A   1      47.936  26.907  42.057  0.00  0.00    -0.275 OA
ENDBRANCH   7   8
ENDBRANCH   1   7
TORSDOF 5
REMARK  Name = ../refined-set-2016/2ov4/2ov4_pocket.pdb
REMARK  255 active torsions:
REMARK  status: ('A' for Active; 'I' for Inactive)
REMARK    1  A    between atoms: _1  and  _3
REMARK    2  A    between atoms: _3  and  _4
REMARK    3  A    between atoms: _3  and  _6
REMARK    4  A    between atoms: _6  and  _7
REMARK    5  A    between atoms: _13  and  _15
REMARK    6  A    between atoms: _15  and  _16
REMARK    7  A    between atoms: _15  and  _18
REMARK    8  A    between atoms: _18  and  _19
REMARK    9  A    between atoms: _21  and  _23
REMARK   10  A    between atoms: _23  and  _24
REMARK   11  A    between atoms: _26  and  _28
REMARK   12  A    between atoms: _28  and  _29
REMARK   13  A    between atoms: _28  and  _31
REMARK   14  A    between atoms: _31  and  _32
REMARK   15  A    between atoms: _35  and  _37
REMARK   16  A    between atoms: _37  and  _38
REMARK   17  A    between atoms: _37  and  _40
REMARK   18  A    between atoms: _40  and  _41
REMARK   19  A    between atoms: _41  and  _42
REMARK   20  A    between atoms: _48  and  _49
REMARK   21  A    between atoms: _54  and  _56
REMARK   22  A    between atoms: _56  and  _57
REMARK   23  A    between atoms: _56  and  _59
REMARK   24  A    between atoms: _59  and  _60
REMARK   25  A    between atoms: _62  and  _64
REMARK   26  A    between atoms: _64  and  _65
REMARK   27  A    between atoms: _67  and  _69
REMARK   28  A    between atoms: _69  and  _70
REMARK   29  A    between atoms: _69  and  _72
REMARK   30  A    between atoms: _75  and  _77
REMARK   31  A    between atoms: _77  and  _78
REMARK   32  A    between atoms: _77  and  _80
REMARK   33  A    between atoms: _80  and  _81
REMARK   34  A    between atoms: _84  and  _86
REMARK   35  A    between atoms: _86  and  _87
REMARK   36  A    between atoms: _86  and  _89
REMARK   37  A    between atoms: _89  and  _90
REMARK   38  A    between atoms: _93  and  _95
REMARK   39  A    between atoms: _95  and  _96
REMARK   40  A    between atoms: _95  and  _98
REMARK   41  A    between atoms: _98  and  _99
REMARK   42  A    between atoms: _102  and  _104
REMARK   43  A    between atoms: _104  and  _105
REMARK   44  A    between atoms: _107  and  _109
REMARK   45  A    between atoms: _109  and  _110
REMARK   46  A    between atoms: _109  and  _112
REMARK   47  A    between atoms: _112  and  _113
REMARK   48  A    between atoms: _118  and  _120
REMARK   49  A    between atoms: _120  and  _121
REMARK   50  A    between atoms: _120  and  _123
REMARK   51  A    between atoms: _123  and  _124
REMARK   52  A    between atoms: _129  and  _130
REMARK   53  A    between atoms: _132  and  _134
REMARK   54  A    between atoms: _134  and  _135
REMARK   55  A    between atoms: _134  and  _137
REMARK   56  A    between atoms: _137  and  _138
REMARK   57  A    between atoms: _141  and  _143
REMARK   58  A    between atoms: _143  and  _144
REMARK   59  A    between atoms: _146  and  _148
REMARK   60  A    between atoms: _148  and  _149
REMARK   61  A    between atoms: _152  and  _154
REMARK   62  A    between atoms: _154  and  _155
REMARK   63  A    between atoms: _154  and  _157
REMARK   64  A    between atoms: _157  and  _158
REMARK   65  A    between atoms: _161  and  _163
REMARK   66  A    between atoms: _163  and  _164
REMARK   67  A    between atoms: _163  and  _166
REMARK   68  A    between atoms: _166  and  _167
REMARK   69  A    between atoms: _167  and  _168
REMARK   70  A    between atoms: _168  and  _169
REMARK   71  A    between atoms: _178  and  _180
REMARK   72  A    between atoms: _180  and  _181
REMARK   73  A    between atoms: _180  and  _183
REMARK   74  A    between atoms: _183  and  _184
REMARK   75  A    between atoms: _184  and  _185
REMARK   76  A    between atoms: _190  and  _192
REMARK   77  A    between atoms: _192  and  _193
REMARK   78  A    between atoms: _192  and  _195
REMARK   79  A    between atoms: _195  and  _196
REMARK   80  A    between atoms: _202  and  _204
REMARK   81  A    between atoms: _204  and  _205
REMARK   82  A    between atoms: _204  and  _207
REMARK   83  A    between atoms: _209  and  _211
REMARK   84  A    between atoms: _211  and  _212
REMARK   85  A    between atoms: _211  and  _214
REMARK   86  A    between atoms: _214  and  _215
REMARK   87  A    between atoms: _218  and  _220
REMARK   88  A    between atoms: _220  and  _221
REMARK   89  A    between atoms: _220  and  _223
REMARK   90  A    between atoms: _226  and  _228
REMARK   91  A    between atoms: _228  and  _229
REMARK   92  A    between atoms: _228  and  _231
REMARK   93  A    between atoms: _231  and  _232
REMARK   94  A    between atoms: _237  and  _239
REMARK   95  A    between atoms: _239  and  _240
REMARK   96  A    between atoms: _243  and  _245
REMARK   97  A    between atoms: _245  and  _246
REMARK   98  A    between atoms: _245  and  _248
REMARK   99  A    between atoms: _248  and  _249
REMARK  100  A    between atoms: _252  and  _254
REMARK  101  A    between atoms: _254  and  _255
REMARK  102  A    between atoms: _254  and  _257
REMARK  103  A    between atoms: _260  and  _262
REMARK  104  A    between atoms: _262  and  _263
REMARK  105  A    between atoms: _262  and  _265
REMARK  106  A    between atoms: _265  and  _266
REMARK  107  A    between atoms: _266  and  _267
REMARK  108  A    between atoms: _272  and  _274
REMARK  109  A    between atoms: _274  and  _275
REMARK  110  A    between atoms: _274  and  _277
REMARK  111  A    between atoms: _277  and  _278
REMARK  112  A    between atoms: _281  and  _283
REMARK  113  A    between atoms: _283  and  _284
REMARK  114  A    between atoms: _283  and  _286
REMARK  115  A    between atoms: _286  and  _287
REMARK  116  A    between atoms: _292  and  _293
REMARK  117  A    between atoms: _295  and  _297
REMARK  118  A    between atoms: _297  and  _298
REMARK  119  A    between atoms: _297  and  _300
REMARK  120  A    between atoms: _300  and  _301
REMARK  121  A    between atoms: _301  and  _302
REMARK  122  A    between atoms: _307  and  _309
REMARK  123  A    between atoms: _309  and  _310
REMARK  124  A    between atoms: _309  and  _312
REMARK  125  A    between atoms: _312  and  _313
REMARK  126  A    between atoms: _313  and  _314
REMARK  127  A    between atoms: _314  and  _315
REMARK  128  A    between atoms: _315  and  _316
REMARK  129  A    between atoms: _320  and  _322
REMARK  130  A    between atoms: _322  and  _323
REMARK  131  A    between atoms: _322  and  _325
REMARK  132  A    between atoms: _325  and  _326
REMARK  133  A    between atoms: _331  and  _332
REMARK  134  A    between atoms: _334  and  _336
REMARK  135  A    between atoms: _336  and  _337
REMARK  136  A    between atoms: _336  and  _339
REMARK  137  A    between atoms: _339  and  _340
REMARK  138  A    between atoms: _340  and  _341
REMARK  139  A    between atoms: _343  and  _345
REMARK  140  A    between atoms: _345  and  _346
REMARK  141  A    between atoms: _345  and  _348
REMARK  142  A    between atoms: _352  and  _353
REMARK  143  A    between atoms: _358  and  _360
REMARK  144  A    between atoms: _360  and  _361
REMARK  145  A    between atoms: _360  and  _363
REMARK  146  A    between atoms: _366  and  _368
REMARK  147  A    between atoms: _368  and  _369
REMARK  148  A    between atoms: _371  and  _373
REMARK  149  A    between atoms: _373  and  _374
REMARK  150  A    between atoms: _373  and  _376
REMARK  151  A    between atoms: _376  and  _377
REMARK  152  A    between atoms: _377  and  _378
REMARK  153  A    between atoms: _381  and  _383
REMARK  154  A    between atoms: _383  and  _384
REMARK  155  A    between atoms: _383  and  _386
REMARK  156  A    between atoms: _386  and  _387
REMARK  157  A    between atoms: _390  and  _392
REMARK  158  A    between atoms: _392  and  _393
REMARK  159  A    between atoms: _392  and  _395
REMARK  160  A    between atoms: _395  and  _396
REMARK  161  A    between atoms: _396  and  _397
REMARK  162  A    between atoms: _402  and  _404
REMARK  163  A    between atoms: _404  and  _405
REMARK  164  A    between atoms: _404  and  _407
REMARK  165  A    between atoms: _407  and  _408
REMARK  166  A    between atoms: _408  and  _409
REMARK  167  A    between atoms: _409  and  _410
REMARK  168  A    between atoms: _410  and  _411
REMARK  169  A    between atoms: _415  and  _417
REMARK  170  A    between atoms: _417  and  _418
REMARK  171  A    between atoms: _417  and  _420
REMARK  172  A    between atoms: _420  and  _421
REMARK  173  A    between atoms: _426  and  _428
REMARK  174  A    between atoms: _428  and  _429
REMARK  175  A    between atoms: _428  and  _431
REMARK  176  A    between atoms: _431  and  _432
REMARK  177  A    between atoms: _435  and  _437
REMARK  178  A    between atoms: _437  and  _438
REMARK  179  A    between atoms: _437  and  _440
REMARK  180  A    between atoms: _440  and  _441
REMARK  181  A    between atoms: _445  and  _446
REMARK  182  A    between atoms: _451  and  _453
REMARK  183  A    between atoms: _453  and  _454
REMARK  184  A    between atoms: _453  and  _456
REMARK  185  A    between atoms: _459  and  _461
REMARK  186  A    between atoms: _461  and  _462
REMARK  187  A    between atoms: _464  and  _466
REMARK  188  A    between atoms: _466  and  _467
REMARK  189  A    between atoms: _470  and  _472
REMARK  190  A    between atoms: _472  and  _473
REMARK  191  A    between atoms: _472  and  _475
REMARK  192  A    between atoms: _475  and  _476
REMARK  193  A    between atoms: _476  and  _477
REMARK  194  A    between atoms: _477  and  _478
REMARK  195  A    between atoms: _487  and  _489
REMARK  196  A    between atoms: _489  and  _490
REMARK  197  A    between atoms: _489  and  _492
REMARK  198  A    between atoms: _492  and  _493
REMARK  199  A    between atoms: _496  and  _498
REMARK  200  A    between atoms: _498  and  _499
REMARK  201  A    between atoms: _498  and  _501
REMARK  202  A    between atoms: _501  and  _502
REMARK  203  A    between atoms: _502  and  _503
REMARK  204  A    between atoms: _505  and  _507
REMARK  205  A    between atoms: _507  and  _508
REMARK  206  A    between atoms: _507  and  _510
REMARK  207  A    between atoms: _510  and  _511
REMARK  208  A    between atoms: _513  and  _515
REMARK  209  A    between atoms: _515  and  _516
REMARK  210  A    between atoms: _515  and  _518
REMARK  211  A    between atoms: _518  and  _519
REMARK  212  A    between atoms: _519  and  _520
REMARK  213  A    between atoms: _520  and  _521
REMARK  214  A    between atoms: _521  and  _522
REMARK  215  A    between atoms: _526  and  _528
REMARK  216  A    between atoms: _528  and  _529
REMARK  217  A    between atoms: _528  and  _531
REMARK  218  A    between atoms: _531  and  _532
REMARK  219  A    between atoms: _532  and  _533
REMARK  220  A    between atoms: _533  and  _534
REMARK  221  A    between atoms: _534  and  _535
REMARK  222  A    between atoms: _539  and  _541
REMARK  223  A    between atoms: _541  and  _542
REMARK  224  A    between atoms: _541  and  _544
REMARK  225  A    between atoms: _544  and  _545
REMARK  226  A    between atoms: _545  and  _546
REMARK  227  A    between atoms: _548  and  _550
REMARK  228  A    between atoms: _550  and  _551
REMARK  229  A    between atoms: _550  and  _553
REMARK  230  A    between atoms: _553  and  _554
REMARK  231  A    between atoms: _556  and  _558
REMARK  232  A    between atoms: _558  and  _559
REMARK  233  A    between atoms: _558  and  _561
REMARK  234  A    between atoms: _561  and  _562
REMARK  235  A    between atoms: _562  and  _563
REMARK  236  A    between atoms: _563  and  _564
REMARK  237  A    between atoms: _564  and  _565
REMARK  238  A    between atoms: _569  and  _571
REMARK  239  A    between atoms: _571  and  _572
REMARK  240  A    between atoms: _571  and  _574
REMARK  241  A    between atoms: _574  and  _575
REMARK  242  A    between atoms: _577  and  _579
REMARK  243  A    between atoms: _579  and  _580
REMARK  244  A    between atoms: _579  and  _582
REMARK  245  A    between atoms: _582  and  _583
REMARK  246  A    between atoms: _587  and  _588
REMARK  247  A    between atoms: _593  and  _595
REMARK  248  A    between atoms: _595  and  _596
REMARK  249  A    between atoms: _595  and  _598
REMARK  250  A    between atoms: _598  and  _599
REMARK  251  A    between atoms: _604  and  _605
REMARK  252  A    between atoms: _607  and  _609
REMARK  253  A    between atoms: _609  and  _610
REMARK  254  A    between atoms: _609  and  _612
REMARK  255  A    between atoms: _612  and  _613
REMARK                            x       y       z     vdW  Elec       q    Type
REMARK                         _______ _______ _______ _____ _____    ______ ____
ROOT
ATOM      1  CG  LYS A   1      41.885  24.350  40.662  0.00  0.00    -0.000 C 
ENDROOT
BRANCH   1   2
ATOM      2  CB  LYS A   1      41.084  25.095  41.722  0.00  0.00    +0.025 C 
BRANCH   2   3
ATOM      3  CA  LYS A   1      39.902  25.926  41.194  0.00  0.00    +0.133 C 
BRANCH   3   4
ATOM      4  N   LYS A   1      40.160  27.366  41.393  0.00  0.00    -0.239 NA
ATOM      5  H   LYS A   1      41.046  27.637  41.866  0.00  0.00    +0.142 HD
ENDBRANCH   3   4
BRANCH   3   6
ATOM      6  C   LYS A   1      38.589  25.474  41.867  0.00  0.00    +0.224 C 
ATOM      7  O   LYS A   1      37.962  24.492  41.454  0.00  0.00    -0.287 OA
ENDBRANCH   3   6
ENDBRANCH   2   3
ENDBRANCH   1   2
BRANCH   1   8
ATOM      8  CD  LYS A   1      43.404  24.533  40.836  0.00  0.00    -0.024 C 
BRANCH   8   9
ATOM      9  CE  LYS A   1      44.125  24.766  39.485  0.00  0.00    -0.086 C 
BRANCH   9  10
ATOM     10  NZ  LYS A   1      45.088  23.689  39.073  0.00  0.00    +0.380 N 
ATOM     11  HZ1 LYS A   1      45.833  23.598  39.793  0.00  0.00    -0.089 HD
ATOM     12  HZ2 LYS A   1      44.579  22.786  38.983  0.00  0.00    -0.089 HD
ATOM     13  HZ3 LYS A   1      45.516  23.939  38.159  0.00  0.00    -0.089 HD
ENDBRANCH   9  10
ENDBRANCH   8   9
ENDBRANCH   1   8
TORSDOF 7
REMARK  Name = ../refined-set-2016/2ov4/2ov4_pocket.pdb
REMARK  255 active torsions:
REMARK  status: ('A' for Active; 'I' for Inactive)
REMARK    1  A    between atoms: _1  and  _3
REMARK    2  A    between atoms: _3  and  _4
REMARK    3  A    between atoms: _3  and  _6
REMARK    4  A    between atoms: _6  and  _7
REMARK    5  A    between atoms: _13  and  _15
REMARK    6  A    between atoms: _15  and  _16
REMARK    7  A    between atoms: _15  and  _18
REMARK    8  A    between atoms: _18  and  _19
REMARK    9  A    between atoms: _21  and  _23
REMARK   10  A    between atoms: _23  and  _24
REMARK   11  A    between atoms: _26  and  _28
REMARK   12  A    between atoms: _28  and  _29
REMARK   13  A    between atoms: _28  and  _31
REMARK   14  A    between atoms: _31  and  _32
REMARK   15  A    between atoms: _35  and  _37
REMARK   16  A    between atoms: _37  and  _38
REMARK   17  A    between atoms: _37  and  _40
REMARK   18  A    between atoms: _40  and  _41
REMARK   19  A    between atoms: _41  and  _42
REMARK   20  A    between atoms: _48  and  _49
REMARK   21  A    between atoms: _54  and  _56
REMARK   22  A    between atoms: _56  and  _57
REMARK   23  A    between atoms: _56  and  _59
REMARK   24  A    between atoms: _59  and  _60
REMARK   25  A    between atoms: _62  and  _64
REMARK   26  A    between atoms: _64  and  _65
REMARK   27  A    between atoms: _67  and  _69
REMARK   28  A    between atoms: _69  and  _70
REMARK   29  A    between atoms: _69  and  _72
REMARK   30  A    between atoms: _75  and  _77
REMARK   31  A    between atoms: _77  and  _78
REMARK   32  A    between atoms: _77  and  _80
REMARK   33  A    between atoms: _80  and  _81
REMARK   34  A    between atoms: _84  and  _86
REMARK   35  A    between atoms: _86  and  _87
REMARK   36  A    between atoms: _86  and  _89
REMARK   37  A    between atoms: _89  and  _90
REMARK   38  A    between atoms: _93  and  _95
REMARK   39  A    between atoms: _95  and  _96
REMARK   40  A    between atoms: _95  and  _98
REMARK   41  A    between atoms: _98  and  _99
REMARK   42  A    between atoms: _102  and  _104
REMARK   43  A    between atoms: _104  and  _105
REMARK   44  A    between atoms: _107  and  _109
REMARK   45  A    between atoms: _109  and  _110
REMARK   46  A    between atoms: _109  and  _112
REMARK   47  A    between atoms: _112  and  _113
REMARK   48  A    between atoms: _118  and  _120
REMARK   49  A    between atoms: _120  and  _121
REMARK   50  A    between atoms: _120  and  _123
REMARK   51  A    between atoms: _123  and  _124
REMARK   52  A    between atoms: _129  and  _130
REMARK   53  A    between atoms: _132  and  _134
REMARK   54  A    between atoms: _134  and  _135
REMARK   55  A    between atoms: _134  and  _137
REMARK   56  A    between atoms: _137  and  _138
REMARK   57  A    between atoms: _141  and  _143
REMARK   58  A    between atoms: _143  and  _144
REMARK   59  A    between atoms: _146  and  _148
REMARK   60  A    between atoms: _148  and  _149
REMARK   61  A    between atoms: _152  and  _154
REMARK   62  A    between atoms: _154  and  _155
REMARK   63  A    between atoms: _154  and  _157
REMARK   64  A    between atoms: _157  and  _158
REMARK   65  A    between atoms: _161  and  _163
REMARK   66  A    between atoms: _163  and  _164
REMARK   67  A    between atoms: _163  and  _166
REMARK   68  A    between atoms: _166  and  _167
REMARK   69  A    between atoms: _167  and  _168
REMARK   70  A    between atoms: _168  and  _169
REMARK   71  A    between atoms: _178  and  _180
REMARK   72  A    between atoms: _180  and  _181
REMARK   73  A    between atoms: _180  and  _183
REMARK   74  A    between atoms: _183  and  _184
REMARK   75  A    between atoms: _184  and  _185
REMARK   76  A    between atoms: _190  and  _192
REMARK   77  A    between atoms: _192  and  _193
REMARK   78  A    between atoms: _192  and  _195
REMARK   79  A    between atoms: _195  and  _196
REMARK   80  A    between atoms: _202  and  _204
REMARK   81  A    between atoms: _204  and  _205
REMARK   82  A    between atoms: _204  and  _207
REMARK   83  A    between atoms: _209  and  _211
REMARK   84  A    between atoms: _211  and  _212
REMARK   85  A    between atoms: _211  and  _214
REMARK   86  A    between atoms: _214  and  _215
REMARK   87  A    between atoms: _218  and  _220
REMARK   88  A    between atoms: _220  and  _221
REMARK   89  A    between atoms: _220  and  _223
REMARK   90  A    between atoms: _226  and  _228
REMARK   91  A    between atoms: _228  and  _229
REMARK   92  A    between atoms: _228  and  _231
REMARK   93  A    between atoms: _231  and  _232
REMARK   94  A    between atoms: _237  and  _239
REMARK   95  A    between atoms: _239  and  _240
REMARK   96  A    between atoms: _243  and  _245
REMARK   97  A    between atoms: _245  and  _246
REMARK   98  A    between atoms: _245  and  _248
REMARK   99  A    between atoms: _248  and  _249
REMARK  100  A    between atoms: _252  and  _254
REMARK  101  A    between atoms: _254  and  _255
REMARK  102  A    between atoms: _254  and  _257
REMARK  103  A    between atoms: _260  and  _262
REMARK  104  A    between atoms: _262  and  _263
REMARK  105  A    between atoms: _262  and  _265
REMARK  106  A    between atoms: _265  and  _266
REMARK  107  A    between atoms: _266  and  _267
REMARK  108  A    between atoms: _272  and  _274
REMARK  109  A    between atoms: _274  and  _275
REMARK  110  A    between atoms: _274  and  _277
REMARK  111  A    between atoms: _277  and  _278
REMARK  112  A    between atoms: _281  and  _283
REMARK  113  A    between atoms: _283  and  _284
REMARK  114  A    between atoms: _283  and  _286
REMARK  115  A    between atoms: _286  and  _287
REMARK  116  A    between atoms: _292  and  _293
REMARK  117  A    between atoms: _295  and  _297
REMARK  118  A    between atoms: _297  and  _298
REMARK  119  A    between atoms: _297  and  _300
REMARK  120  A    between atoms: _300  and  _301
REMARK  121  A    between atoms: _301  and  _302
REMARK  122  A    between atoms: _307  and  _309
REMARK  123  A    between atoms: _309  and  _310
REMARK  124  A    between atoms: _309  and  _312
REMARK  125  A    between atoms: _312  and  _313
REMARK  126  A    between atoms: _313  and  _314
REMARK  127  A    between atoms: _314  and  _315
REMARK  128  A    between atoms: _315  and  _316
REMARK  129  A    between atoms: _320  and  _322
REMARK  130  A    between atoms: _322  and  _323
REMARK  131  A    between atoms: _322  and  _325
REMARK  132  A    between atoms: _325  and  _326
REMARK  133  A    between atoms: _331  and  _332
REMARK  134  A    between atoms: _334  and  _336
REMARK  135  A    between atoms: _336  and  _337
REMARK  136  A    between atoms: _336  and  _339
REMARK  137  A    between atoms: _339  and  _340
REMARK  138  A    between atoms: _340  and  _341
REMARK  139  A    between atoms: _343  and  _345
REMARK  140  A    between atoms: _345  and  _346
REMARK  141  A    between atoms: _345  and  _348
REMARK  142  A    between atoms: _352  and  _353
REMARK  143  A    between atoms: _358  and  _360
REMARK  144  A    between atoms: _360  and  _361
REMARK  145  A    between atoms: _360  and  _363
REMARK  146  A    between atoms: _366  and  _368
REMARK  147  A    between atoms: _368  and  _369
REMARK  148  A    between atoms: _371  and  _373
REMARK  149  A    between atoms: _373  and  _374
REMARK  150  A    between atoms: _373  and  _376
REMARK  151  A    between atoms: _376  and  _377
REMARK  152  A    between atoms: _377  and  _378
REMARK  153  A    between atoms: _381  and  _383
REMARK  154  A    between atoms: _383  and  _384
REMARK  155  A    between atoms: _383  and  _386
REMARK  156  A    between atoms: _386  and  _387
REMARK  157  A    between atoms: _390  and  _392
REMARK  158  A    between atoms: _392  and  _393
REMARK  159  A    between atoms: _392  and  _395
REMARK  160  A    between atoms: _395  and  _396
REMARK  161  A    between atoms: _396  and  _397
REMARK  162  A    between atoms: _402  and  _404
REMARK  163  A    between atoms: _404  and  _405
REMARK  164  A    between atoms: _404  and  _407
REMARK  165  A    between atoms: _407  and  _408
REMARK  166  A    between atoms: _408  and  _409
REMARK  167  A    between atoms: _409  and  _410
REMARK  168  A    between atoms: _410  and  _411
REMARK  169  A    between atoms: _415  and  _417
REMARK  170  A    between atoms: _417  and  _418
REMARK  171  A    between atoms: _417  and  _420
REMARK  172  A    between atoms: _420  and  _421
REMARK  173  A    between atoms: _426  and  _428
REMARK  174  A    between atoms: _428  and  _429
REMARK  175  A    between atoms: _428  and  _431
REMARK  176  A    between atoms: _431  and  _432
REMARK  177  A    between atoms: _435  and  _437
REMARK  178  A    between atoms: _437  and  _438
REMARK  179  A    between atoms: _437  and  _440
REMARK  180  A    between atoms: _440  and  _441
REMARK  181  A    between atoms: _445  and  _446
REMARK  182  A    between atoms: _451  and  _453
REMARK  183  A    between atoms: _453  and  _454
REMARK  184  A    between atoms: _453  and  _456
REMARK  185  A    between atoms: _459  and  _461
REMARK  186  A    between atoms: _461  and  _462
REMARK  187  A    between atoms: _464  and  _466
REMARK  188  A    between atoms: _466  and  _467
REMARK  189  A    between atoms: _470  and  _472
REMARK  190  A    between atoms: _472  and  _473
REMARK  191  A    between atoms: _472  and  _475
REMARK  192  A    between atoms: _475  and  _476
REMARK  193  A    between atoms: _476  and  _477
REMARK  194  A    between atoms: _477  and  _478
REMARK  195  A    between atoms: _487  and  _489
REMARK  196  A    between atoms: _489  and  _490
REMARK  197  A    between atoms: _489  and  _492
REMARK  198  A    between atoms: _492  and  _493
REMARK  199  A    between atoms: _496  and  _498
REMARK  200  A    between atoms: _498  and  _499
REMARK  201  A    between atoms: _498  and  _501
REMARK  202  A    between atoms: _501  and  _502
REMARK  203  A    between atoms: _502  and  _503
REMARK  204  A    between atoms: _505  and  _507
REMARK  205  A    between atoms: _507  and  _508
REMARK  206  A    between atoms: _507  and  _510
REMARK  207  A    between atoms: _510  and  _511
REMARK  208  A    between atoms: _513  and  _515
REMARK  209  A    between atoms: _515  and  _516
REMARK  210  A    between atoms: _515  and  _518
REMARK  211  A    between atoms: _518  and  _519
REMARK  212  A    between atoms: _519  and  _520
REMARK  213  A    between atoms: _520  and  _521
REMARK  214  A    between atoms: _521  and  _522
REMARK  215  A    between atoms: _526  and  _528
REMARK  216  A    between atoms: _528  and  _529
REMARK  217  A    between atoms: _528  and  _531
REMARK  218  A    between atoms: _531  and  _532
REMARK  219  A    between atoms: _532  and  _533
REMARK  220  A    between atoms: _533  and  _534
REMARK  221  A    between atoms: _534  and  _535
REMARK  222  A    between atoms: _539  and  _541
REMARK  223  A    between atoms: _541  and  _542
REMARK  224  A    between atoms: _541  and  _544
REMARK  225  A    between atoms: _544  and  _545
REMARK  226  A    between atoms: _545  and  _546
REMARK  227  A    between atoms: _548  and  _550
REMARK  228  A    between atoms: _550  and  _551
REMARK  229  A    between atoms: _550  and  _553
REMARK  230  A    between atoms: _553  and  _554
REMARK  231  A    between atoms: _556  and  _558
REMARK  232  A    between atoms: _558  and  _559
REMARK  233  A    between atoms: _558  and  _561
REMARK  234  A    between atoms: _561  and  _562
REMARK  235  A    between atoms: _562  and  _563
REMARK  236  A    between atoms: _563  and  _564
REMARK  237  A    between atoms: _564  and  _565
REMARK  238  A    between atoms: _569  and  _571
REMARK  239  A    between atoms: _571  and  _572
REMARK  240  A    between atoms: _571  and  _574
REMARK  241  A    between atoms: _574  and  _575
REMARK  242  A    between atoms: _577  and  _579
REMARK  243  A    between atoms: _579  and  _580
REMARK  244  A    between atoms: _579  and  _582
REMARK  245  A    between atoms: _582  and  _583
REMARK  246  A    between atoms: _587  and  _588
REMARK  247  A    between atoms: _593  and  _595
REMARK  248  A    between atoms: _595  and  _596
REMARK  249  A    between atoms: _595  and  _598
REMARK  250  A    between atoms: _598  and  _599
REMARK  251  A    between atoms: _604  and  _605
REMARK  252  A    between atoms: _607  and  _609
REMARK  253  A    between atoms: _609  and  _610
REMARK  254  A    between atoms: _609  and  _612
REMARK  255  A    between atoms: _612  and  _613
REMARK                            x       y       z     vdW  Elec       q    Type
REMARK                         _______ _______ _______ _____ _____    ______ ____
ROOT
ATOM      1  CG  TYR A   1      47.444  22.079  46.220  0.00  0.00    -0.020 A 
ATOM      2  CD2 TYR A   1      48.680  22.735  46.164  0.00  0.00    -0.001 A 
ATOM      3  CE2 TYR A   1      49.486  22.685  45.010  0.00  0.00    +0.036 A 
ATOM      4  CZ  TYR A   1      49.047  22.004  43.871  0.00  0.00    +0.134 A 
ATOM      5  CE1 TYR A   1      47.790  21.388  43.862  0.00  0.00    +0.036 A 
ATOM      6  CD1 TYR A   1      46.985  21.441  45.036  0.00  0.00    -0.001 A 
ENDROOT
BRANCH   4   7
ATOM      7  OH  TYR A   1      49.876  21.975  42.755  0.00  0.00    -0.506 OA
ATOM      8  HH  TYR A   1      50.715  22.461  42.956  0.00  0.00    +0.292 HD
ENDBRANCH   4   7
BRANCH   1   9
ATOM      9  CB  TYR A   1      46.552  22.201  47.450  0.00  0.00    +0.051 C 
BRANCH   9  10
ATOM     10  CA  TYR A   1      47.012  21.448  48.717  0.00  0.00    +0.137 C 
BRANCH  10  11
ATOM     11  N   TYR A   1      45.926  21.517  49.670  0.00  0.00    -0.239 NA
ATOM     12  H   TYR A   1      45.004  21.874  49.348  0.00  0.00    +0.142 HD
ENDBRANCH  10  11
BRANCH  10  13
ATOM     13  C   TYR A   1      48.286  22.125  49.303  0.00  0.00    +0.224 C 
ATOM     14  O   TYR A   1      49.396  21.586  49.189  0.00  0.00    -0.287 OA
ENDBRANCH  10  13
ENDBRANCH   9  10
ENDBRANCH   1   9
TORSDOF 5
REMARK  Name = ../refined-set-2016/2ov4/2ov4_pocket.pdb
REMARK  255 active torsions:
REMARK  status: ('A' for Active; 'I' for Inactive)
REMARK    1  A    between atoms: _1  and  _3
REMARK    2  A    between atoms: _3  and  _4
REMARK    3  A    between atoms: _3  and  _6
REMARK    4  A    between atoms: _6  and  _7
REMARK    5  A    between atoms: _13  and  _15
REMARK    6  A    between atoms: _15  and  _16
REMARK    7  A    between atoms: _15  and  _18
REMARK    8  A    between atoms: _18  and  _19
REMARK    9  A    between atoms: _21  and  _23
REMARK   10  A    between atoms: _23  and  _24
REMARK   11  A    between atoms: _26  and  _28
REMARK   12  A    between atoms: _28  and  _29
REMARK   13  A    between atoms: _28  and  _31
REMARK   14  A    between atoms: _31  and  _32
REMARK   15  A    between atoms: _35  and  _37
REMARK   16  A    between atoms: _37  and  _38
REMARK   17  A    between atoms: _37  and  _40
REMARK   18  A    between atoms: _40  and  _41
REMARK   19  A    between atoms: _41  and  _42
REMARK   20  A    between atoms: _48  and  _49
REMARK   21  A    between atoms: _54  and  _56
REMARK   22  A    between atoms: _56  and  _57
REMARK   23  A    between atoms: _56  and  _59
REMARK   24  A    between atoms: _59  and  _60
REMARK   25  A    between atoms: _62  and  _64
REMARK   26  A    between atoms: _64  and  _65
REMARK   27  A    between atoms: _67  and  _69
REMARK   28  A    between atoms: _69  and  _70
REMARK   29  A    between atoms: _69  and  _72
REMARK   30  A    between atoms: _75  and  _77
REMARK   31  A    between atoms: _77  and  _78
REMARK   32  A    between atoms: _77  and  _80
REMARK   33  A    between atoms: _80  and  _81
REMARK   34  A    between atoms: _84  and  _86
REMARK   35  A    between atoms: _86  and  _87
REMARK   36  A    between atoms: _86  and  _89
REMARK   37  A    between atoms: _89  and  _90
REMARK   38  A    between atoms: _93  and  _95
REMARK   39  A    between atoms: _95  and  _96
REMARK   40  A    between atoms: _95  and  _98
REMARK   41  A    between atoms: _98  and  _99
REMARK   42  A    between atoms: _102  and  _104
REMARK   43  A    between atoms: _104  and  _105
REMARK   44  A    between atoms: _107  and  _109
REMARK   45  A    between atoms: _109  and  _110
REMARK   46  A    between atoms: _109  and  _112
REMARK   47  A    between atoms: _112  and  _113
REMARK   48  A    between atoms: _118  and  _120
REMARK   49  A    between atoms: _120  and  _121
REMARK   50  A    between atoms: _120  and  _123
REMARK   51  A    between atoms: _123  and  _124
REMARK   52  A    between atoms: _129  and  _130
REMARK   53  A    between atoms: _132  and  _134
REMARK   54  A    between atoms: _134  and  _135
REMARK   55  A    between atoms: _134  and  _137
REMARK   56  A    between atoms: _137  and  _138
REMARK   57  A    between atoms: _141  and  _143
REMARK   58  A    between atoms: _143  and  _144
REMARK   59  A    between atoms: _146  and  _148
REMARK   60  A    between atoms: _148  and  _149
REMARK   61  A    between atoms: _152  and  _154
REMARK   62  A    between atoms: _154  and  _155
REMARK   63  A    between atoms: _154  and  _157
REMARK   64  A    between atoms: _157  and  _158
REMARK   65  A    between atoms: _161  and  _163
REMARK   66  A    between atoms: _163  and  _164
REMARK   67  A    between atoms: _163  and  _166
REMARK   68  A    between atoms: _166  and  _167
REMARK   69  A    between atoms: _167  and  _168
REMARK   70  A    between atoms: _168  and  _169
REMARK   71  A    between atoms: _178  and  _180
REMARK   72  A    between atoms: _180  and  _181
REMARK   73  A    between atoms: _180  and  _183
REMARK   74  A    between atoms: _183  and  _184
REMARK   75  A    between atoms: _184  and  _185
REMARK   76  A    between atoms: _190  and  _192
REMARK   77  A    between atoms: _192  and  _193
REMARK   78  A    between atoms: _192  and  _195
REMARK   79  A    between atoms: _195  and  _196
REMARK   80  A    between atoms: _202  and  _204
REMARK   81  A    between atoms: _204  and  _205
REMARK   82  A    between atoms: _204  and  _207
REMARK   83  A    between atoms: _209  and  _211
REMARK   84  A    between atoms: _211  and  _212
REMARK   85  A    between atoms: _211  and  _214
REMARK   86  A    between atoms: _214  and  _215
REMARK   87  A    between atoms: _218  and  _220
REMARK   88  A    between atoms: _220  and  _221
REMARK   89  A    between atoms: _220  and  _223
REMARK   90  A    between atoms: _226  and  _228
REMARK   91  A    between atoms: _228  and  _229
REMARK   92  A    between atoms: _228  and  _231
REMARK   93  A    between atoms: _231  and  _232
REMARK   94  A    between atoms: _237  and  _239
REMARK   95  A    between atoms: _239  and  _240
REMARK   96  A    between atoms: _243  and  _245
REMARK   97  A    between atoms: _245  and  _246
REMARK   98  A    between atoms: _245  and  _248
REMARK   99  A    between atoms: _248  and  _249
REMARK  100  A    between atoms: _252  and  _254
REMARK  101  A    between atoms: _254  and  _255
REMARK  102  A    between atoms: _254  and  _257
REMARK  103  A    between atoms: _260  and  _262
REMARK  104  A    between atoms: _262  and  _263
REMARK  105  A    between atoms: _262  and  _265
REMARK  106  A    between atoms: _265  and  _266
REMARK  107  A    between atoms: _266  and  _267
REMARK  108  A    between atoms: _272  and  _274
REMARK  109  A    between atoms: _274  and  _275
REMARK  110  A    between atoms: _274  and  _277
REMARK  111  A    between atoms: _277  and  _278
REMARK  112  A    between atoms: _281  and  _283
REMARK  113  A    between atoms: _283  and  _284
REMARK  114  A    between atoms: _283  and  _286
REMARK  115  A    between atoms: _286  and  _287
REMARK  116  A    between atoms: _292  and  _293
REMARK  117  A    between atoms: _295  and  _297
REMARK  118  A    between atoms: _297  and  _298
REMARK  119  A    between atoms: _297  and  _300
REMARK  120  A    between atoms: _300  and  _301
REMARK  121  A    between atoms: _301  and  _302
REMARK  122  A    between atoms: _307  and  _309
REMARK  123  A    between atoms: _309  and  _310
REMARK  124  A    between atoms: _309  and  _312
REMARK  125  A    between atoms: _312  and  _313
REMARK  126  A    between atoms: _313  and  _314
REMARK  127  A    between atoms: _314  and  _315
REMARK  128  A    between atoms: _315  and  _316
REMARK  129  A    between atoms: _320  and  _322
REMARK  130  A    between atoms: _322  and  _323
REMARK  131  A    between atoms: _322  and  _325
REMARK  132  A    between atoms: _325  and  _326
REMARK  133  A    between atoms: _331  and  _332
REMARK  134  A    between atoms: _334  and  _336
REMARK  135  A    between atoms: _336  and  _337
REMARK  136  A    between atoms: _336  and  _339
REMARK  137  A    between atoms: _339  and  _340
REMARK  138  A    between atoms: _340  and  _341
REMARK  139  A    between atoms: _343  and  _345
REMARK  140  A    between atoms: _345  and  _346
REMARK  141  A    between atoms: _345  and  _348
REMARK  142  A    between atoms: _352  and  _353
REMARK  143  A    between atoms: _358  and  _360
REMARK  144  A    between atoms: _360  and  _361
REMARK  145  A    between atoms: _360  and  _363
REMARK  146  A    between atoms: _366  and  _368
REMARK  147  A    between atoms: _368  and  _369
REMARK  148  A    between atoms: _371  and  _373
REMARK  149  A    between atoms: _373  and  _374
REMARK  150  A    between atoms: _373  and  _376
REMARK  151  A    between atoms: _376  and  _377
REMARK  152  A    between atoms: _377  and  _378
REMARK  153  A    between atoms: _381  and  _383
REMARK  154  A    between atoms: _383  and  _384
REMARK  155  A    between atoms: _383  and  _386
REMARK  156  A    between atoms: _386  and  _387
REMARK  157  A    between atoms: _390  and  _392
REMARK  158  A    between atoms: _392  and  _393
REMARK  159  A    between atoms: _392  and  _395
REMARK  160  A    between atoms: _395  and  _396
REMARK  161  A    between atoms: _396  and  _397
REMARK  162  A    between atoms: _402  and  _404
REMARK  163  A    between atoms: _404  and  _405
REMARK  164  A    between atoms: _404  and  _407
REMARK  165  A    between atoms: _407  and  _408
REMARK  166  A    between atoms: _408  and  _409
REMARK  167  A    between atoms: _409  and  _410
REMARK  168  A    between atoms: _410  and  _411
REMARK  169  A    between atoms: _415  and  _417
REMARK  170  A    between atoms: _417  and  _418
REMARK  171  A    between atoms: _417  and  _420
REMARK  172  A    between atoms: _420  and  _421
REMARK  173  A    between atoms: _426  and  _428
REMARK  174  A    between atoms: _428  and  _429
REMARK  175  A    between atoms: _428  and  _431
REMARK  176  A    between atoms: _431  and  _432
REMARK  177  A    between atoms: _435  and  _437
REMARK  178  A    between atoms: _437  and  _438
REMARK  179  A    between atoms: _437  and  _440
REMARK  180  A    between atoms: _440  and  _441
REMARK  181  A    between atoms: _445  and  _446
REMARK  182  A    between atoms: _451  and  _453
REMARK  183  A    between atoms: _453  and  _454
REMARK  184  A    between atoms: _453  and  _456
REMARK  185  A    between atoms: _459  and  _461
REMARK  186  A    between atoms: _461  and  _462
REMARK  187  A    between atoms: _464  and  _466
REMARK  188  A    between atoms: _466  and  _467
REMARK  189  A    between atoms: _470  and  _472
REMARK  190  A    between atoms: _472  and  _473
REMARK  191  A    between atoms: _472  and  _475
REMARK  192  A    between atoms: _475  and  _476
REMARK  193  A    between atoms: _476  and  _477
REMARK  194  A    between atoms: _477  and  _478
REMARK  195  A    between atoms: _487  and  _489
REMARK  196  A    between atoms: _489  and  _490
REMARK  197  A    between atoms: _489  and  _492
REMARK  198  A    between atoms: _492  and  _493
REMARK  199  A    between atoms: _496  and  _498
REMARK  200  A    between atoms: _498  and  _499
REMARK  201  A    between atoms: _498  and  _501
REMARK  202  A    between atoms: _501  and  _502
REMARK  203  A    between atoms: _502  and  _503
REMARK  204  A    between atoms: _505  and  _507
REMARK  205  A    between atoms: _507  and  _508
REMARK  206  A    between atoms: _507  and  _510
REMARK  207  A    between atoms: _510  and  _511
REMARK  208  A    between atoms: _513  and  _515
REMARK  209  A    between atoms: _515  and  _516
REMARK  210  A    between atoms: _515  and  _518
REMARK  211  A    between atoms: _518  and  _519
REMARK  212  A    between atoms: _519  and  _520
REMARK  213  A    between atoms: _520  and  _521
REMARK  214  A    between atoms: _521  and  _522
REMARK  215  A    between atoms: _526  and  _528
REMARK  216  A    between atoms: _528  and  _529
REMARK  217  A    between atoms: _528  and  _531
REMARK  218  A    between atoms: _531  and  _532
REMARK  219  A    between atoms: _532  and  _533
REMARK  220  A    between atoms: _533  and  _534
REMARK  221  A    between atoms: _534  and  _535
REMARK  222  A    between atoms: _539  and  _541
REMARK  223  A    between atoms: _541  and  _542
REMARK  224  A    between atoms: _541  and  _544
REMARK  225  A    between atoms: _544  and  _545
REMARK  226  A    between atoms: _545  and  _546
REMARK  227  A    between atoms: _548  and  _550
REMARK  228  A    between atoms: _550  and  _551
REMARK  229  A    between atoms: _550  and  _553
REMARK  230  A    between atoms: _553  and  _554
REMARK  231  A    between atoms: _556  and  _558
REMARK  232  A    between atoms: _558  and  _559
REMARK  233  A    between atoms: _558  and  _561
REMARK  234  A    between atoms: _561  and  _562
REMARK  235  A    between atoms: _562  and  _563
REMARK  236  A    between atoms: _563  and  _564
REMARK  237  A    between atoms: _564  and  _565
REMARK  238  A    between atoms: _569  and  _571
REMARK  239  A    between atoms: _571  and  _572
REMARK  240  A    between atoms: _571  and  _574
REMARK  241  A    between atoms: _574  and  _575
REMARK  242  A    between atoms: _577  and  _579
REMARK  243  A    between atoms: _579  and  _580
REMARK  244  A    between atoms: _579  and  _582
REMARK  245  A    between atoms: _582  and  _583
REMARK  246  A    between atoms: _587  and  _588
REMARK  247  A    between atoms: _593  and  _595
REMARK  248  A    between atoms: _595  and  _596
REMARK  249  A    between atoms: _595  and  _598
REMARK  250  A    between atoms: _598  and  _599
REMARK  251  A    between atoms: _604  and  _605
REMARK  252  A    between atoms: _607  and  _609
REMARK  253  A    between atoms: _609  and  _610
REMARK  254  A    between atoms: _609  and  _612
REMARK  255  A    between atoms: _612  and  _613
REMARK                            x       y       z     vdW  Elec       q    Type
REMARK                         _______ _______ _______ _____ _____    ______ ____
ROOT
ATOM      1  CA  MET A   1      53.493  21.727  48.762  0.00  0.00    +0.134 C 
ENDROOT
BRANCH   1   2
ATOM      2  N   MET A   1      52.461  21.020  49.510  0.00  0.00    -0.239 NA
ATOM      3  H   MET A   1      51.477  21.350  49.445  0.00  0.00    +0.142 HD
ENDBRANCH   1   2
BRANCH   1   4
ATOM      4  C   MET A   1      54.592  22.295  49.725  0.00  0.00    +0.224 C 
ATOM      5  O   MET A   1      55.802  22.183  49.453  0.00  0.00    -0.287 OA
ENDBRANCH   1   4
BRANCH   1   6
ATOM      6  CB  MET A   1      52.860  22.852  47.989  0.00  0.00    +0.037 C 
BRANCH   6   7
ATOM      7  CG  MET A   1      53.877  23.816  47.422  0.00  0.00    +0.059 C 
BRANCH   7   8
ATOM      8  SD  MET A   1      53.284  24.593  45.929  0.00  0.00    -0.139 S 
ATOM      9  CE  MET A   1      54.812  25.453  45.254  0.00  0.00    +0.069 C 
ENDBRANCH   7   8
ENDBRANCH   6   7
ENDBRANCH   1   6
TORSDOF 5
REMARK  Name = ../refined-set-2016/2ov4/2ov4_pocket.pdb
REMARK  255 active torsions:
REMARK  status: ('A' for Active; 'I' for Inactive)
REMARK    1  A    between atoms: _1  and  _3
REMARK    2  A    between atoms: _3  and  _4
REMARK    3  A    between atoms: _3  and  _6
REMARK    4  A    between atoms: _6  and  _7
REMARK    5  A    between atoms: _13  and  _15
REMARK    6  A    between atoms: _15  and  _16
REMARK    7  A    between atoms: _15  and  _18
REMARK    8  A    between atoms: _18  and  _19
REMARK    9  A    between atoms: _21  and  _23
REMARK   10  A    between atoms: _23  and  _24
REMARK   11  A    between atoms: _26  and  _28
REMARK   12  A    between atoms: _28  and  _29
REMARK   13  A    between atoms: _28  and  _31
REMARK   14  A    between atoms: _31  and  _32
REMARK   15  A    between atoms: _35  and  _37
REMARK   16  A    between atoms: _37  and  _38
REMARK   17  A    between atoms: _37  and  _40
REMARK   18  A    between atoms: _40  and  _41
REMARK   19  A    between atoms: _41  and  _42
REMARK   20  A    between atoms: _48  and  _49
REMARK   21  A    between atoms: _54  and  _56
REMARK   22  A    between atoms: _56  and  _57
REMARK   23  A    between atoms: _56  and  _59
REMARK   24  A    between atoms: _59  and  _60
REMARK   25  A    between atoms: _62  and  _64
REMARK   26  A    between atoms: _64  and  _65
REMARK   27  A    between atoms: _67  and  _69
REMARK   28  A    between atoms: _69  and  _70
REMARK   29  A    between atoms: _69  and  _72
REMARK   30  A    between atoms: _75  and  _77
REMARK   31  A    between atoms: _77  and  _78
REMARK   32  A    between atoms: _77  and  _80
REMARK   33  A    between atoms: _80  and  _81
REMARK   34  A    between atoms: _84  and  _86
REMARK   35  A    between atoms: _86  and  _87
REMARK   36  A    between atoms: _86  and  _89
REMARK   37  A    between atoms: _89  and  _90
REMARK   38  A    between atoms: _93  and  _95
REMARK   39  A    between atoms: _95  and  _96
REMARK   40  A    between atoms: _95  and  _98
REMARK   41  A    between atoms: _98  and  _99
REMARK   42  A    between atoms: _102  and  _104
REMARK   43  A    between atoms: _104  and  _105
REMARK   44  A    between atoms: _107  and  _109
REMARK   45  A    between atoms: _109  and  _110
REMARK   46  A    between atoms: _109  and  _112
REMARK   47  A    between atoms: _112  and  _113
REMARK   48  A    between atoms: _118  and  _120
REMARK   49  A    between atoms: _120  and  _121
REMARK   50  A    between atoms: _120  and  _123
REMARK   51  A    between atoms: _123  and  _124
REMARK   52  A    between atoms: _129  and  _130
REMARK   53  A    between atoms: _132  and  _134
REMARK   54  A    between atoms: _134  and  _135
REMARK   55  A    between atoms: _134  and  _137
REMARK   56  A    between atoms: _137  and  _138
REMARK   57  A    between atoms: _141  and  _143
REMARK   58  A    between atoms: _143  and  _144
REMARK   59  A    between atoms: _146  and  _148
REMARK   60  A    between atoms: _148  and  _149
REMARK   61  A    between atoms: _152  and  _154
REMARK   62  A    between atoms: _154  and  _155
REMARK   63  A    between atoms: _154  and  _157
REMARK   64  A    between atoms: _157  and  _158
REMARK   65  A    between atoms: _161  and  _163
REMARK   66  A    between atoms: _163  and  _164
REMARK   67  A    between atoms: _163  and  _166
REMARK   68  A    between atoms: _166  and  _167
REMARK   69  A    between atoms: _167  and  _168
REMARK   70  A    between atoms: _168  and  _169
REMARK   71  A    between atoms: _178  and  _180
REMARK   72  A    between atoms: _180  and  _181
REMARK   73  A    between atoms: _180  and  _183
REMARK   74  A    between atoms: _183  and  _184
REMARK   75  A    between atoms: _184  and  _185
REMARK   76  A    between atoms: _190  and  _192
REMARK   77  A    between atoms: _192  and  _193
REMARK   78  A    between atoms: _192  and  _195
REMARK   79  A    between atoms: _195  and  _196
REMARK   80  A    between atoms: _202  and  _204
REMARK   81  A    between atoms: _204  and  _205
REMARK   82  A    between atoms: _204  and  _207
REMARK   83  A    between atoms: _209  and  _211
REMARK   84  A    between atoms: _211  and  _212
REMARK   85  A    between atoms: _211  and  _214
REMARK   86  A    between atoms: _214  and  _215
REMARK   87  A    between atoms: _218  and  _220
REMARK   88  A    between atoms: _220  and  _221
REMARK   89  A    between atoms: _220  and  _223
REMARK   90  A    between atoms: _226  and  _228
REMARK   91  A    between atoms: _228  and  _229
REMARK   92  A    between atoms: _228  and  _231
REMARK   93  A    between atoms: _231  and  _232
REMARK   94  A    between atoms: _237  and  _239
REMARK   95  A    between atoms: _239  and  _240
REMARK   96  A    between atoms: _243  and  _245
REMARK   97  A    between atoms: _245  and  _246
REMARK   98  A    between atoms: _245  and  _248
REMARK   99  A    between atoms: _248  and  _249
REMARK  100  A    between atoms: _252  and  _254
REMARK  101  A    between atoms: _254  and  _255
REMARK  102  A    between atoms: _254  and  _257
REMARK  103  A    between atoms: _260  and  _262
REMARK  104  A    between atoms: _262  and  _263
REMARK  105  A    between atoms: _262  and  _265
REMARK  106  A    between atoms: _265  and  _266
REMARK  107  A    between atoms: _266  and  _267
REMARK  108  A    between atoms: _272  and  _274
REMARK  109  A    between atoms: _274  and  _275
REMARK  110  A    between atoms: _274  and  _277
REMARK  111  A    between atoms: _277  and  _278
REMARK  112  A    between atoms: _281  and  _283
REMARK  113  A    between atoms: _283  and  _284
REMARK  114  A    between atoms: _283  and  _286
REMARK  115  A    between atoms: _286  and  _287
REMARK  116  A    between atoms: _292  and  _293
REMARK  117  A    between atoms: _295  and  _297
REMARK  118  A    between atoms: _297  and  _298
REMARK  119  A    between atoms: _297  and  _300
REMARK  120  A    between atoms: _300  and  _301
REMARK  121  A    between atoms: _301  and  _302
REMARK  122  A    between atoms: _307  and  _309
REMARK  123  A    between atoms: _309  and  _310
REMARK  124  A    between atoms: _309  and  _312
REMARK  125  A    between atoms: _312  and  _313
REMARK  126  A    between atoms: _313  and  _314
REMARK  127  A    between atoms: _314  and  _315
REMARK  128  A    between atoms: _315  and  _316
REMARK  129  A    between atoms: _320  and  _322
REMARK  130  A    between atoms: _322  and  _323
REMARK  131  A    between atoms: _322  and  _325
REMARK  132  A    between atoms: _325  and  _326
REMARK  133  A    between atoms: _331  and  _332
REMARK  134  A    between atoms: _334  and  _336
REMARK  135  A    between atoms: _336  and  _337
REMARK  136  A    between atoms: _336  and  _339
REMARK  137  A    between atoms: _339  and  _340
REMARK  138  A    between atoms: _340  and  _341
REMARK  139  A    between atoms: _343  and  _345
REMARK  140  A    between atoms: _345  and  _346
REMARK  141  A    between atoms: _345  and  _348
REMARK  142  A    between atoms: _352  and  _353
REMARK  143  A    between atoms: _358  and  _360
REMARK  144  A    between atoms: _360  and  _361
REMARK  145  A    between atoms: _360  and  _363
REMARK  146  A    between atoms: _366  and  _368
REMARK  147  A    between atoms: _368  and  _369
REMARK  148  A    between atoms: _371  and  _373
REMARK  149  A    between atoms: _373  and  _374
REMARK  150  A    between atoms: _373  and  _376
REMARK  151  A    between atoms: _376  and  _377
REMARK  152  A    between atoms: _377  and  _378
REMARK  153  A    between atoms: _381  and  _383
REMARK  154  A    between atoms: _383  and  _384
REMARK  155  A    between atoms: _383  and  _386
REMARK  156  A    between atoms: _386  and  _387
REMARK  157  A    between atoms: _390  and  _392
REMARK  158  A    between atoms: _392  and  _393
REMARK  159  A    between atoms: _392  and  _395
REMARK  160  A    between atoms: _395  and  _396
REMARK  161  A    between atoms: _396  and  _397
REMARK  162  A    between atoms: _402  and  _404
REMARK  163  A    between atoms: _404  and  _405
REMARK  164  A    between atoms: _404  and  _407
REMARK  165  A    between atoms: _407  and  _408
REMARK  166  A    between atoms: _408  and  _409
REMARK  167  A    between atoms: _409  and  _410
REMARK  168  A    between atoms: _410  and  _411
REMARK  169  A    between atoms: _415  and  _417
REMARK  170  A    between atoms: _417  and  _418
REMARK  171  A    between atoms: _417  and  _420
REMARK  172  A    between atoms: _420  and  _421
REMARK  173  A    between atoms: _426  and  _428
REMARK  174  A    between atoms: _428  and  _429
REMARK  175  A    between atoms: _428  and  _431
REMARK  176  A    between atoms: _431  and  _432
REMARK  177  A    between atoms: _435  and  _437
REMARK  178  A    between atoms: _437  and  _438
REMARK  179  A    between atoms: _437  and  _440
REMARK  180  A    between atoms: _440  and  _441
REMARK  181  A    between atoms: _445  and  _446
REMARK  182  A    between atoms: _451  and  _453
REMARK  183  A    between atoms: _453  and  _454
REMARK  184  A    between atoms: _453  and  _456
REMARK  185  A    between atoms: _459  and  _461
REMARK  186  A    between atoms: _461  and  _462
REMARK  187  A    between atoms: _464  and  _466
REMARK  188  A    between atoms: _466  and  _467
REMARK  189  A    between atoms: _470  and  _472
REMARK  190  A    between atoms: _472  and  _473
REMARK  191  A    between atoms: _472  and  _475
REMARK  192  A    between atoms: _475  and  _476
REMARK  193  A    between atoms: _476  and  _477
REMARK  194  A    between atoms: _477  and  _478
REMARK  195  A    between atoms: _487  and  _489
REMARK  196  A    between atoms: _489  and  _490
REMARK  197  A    between atoms: _489  and  _492
REMARK  198  A    between atoms: _492  and  _493
REMARK  199  A    between atoms: _496  and  _498
REMARK  200  A    between atoms: _498  and  _499
REMARK  201  A    between atoms: _498  and  _501
REMARK  202  A    between atoms: _501  and  _502
REMARK  203  A    between atoms: _502  and  _503
REMARK  204  A    between atoms: _505  and  _507
REMARK  205  A    between atoms: _507  and  _508
REMARK  206  A    between atoms: _507  and  _510
REMARK  207  A    between atoms: _510  and  _511
REMARK  208  A    between atoms: _513  and  _515
REMARK  209  A    between atoms: _515  and  _516
REMARK  210  A    between atoms: _515  and  _518
REMARK  211  A    between atoms: _518  and  _519
REMARK  212  A    between atoms: _519  and  _520
REMARK  213  A    between atoms: _520  and  _521
REMARK  214  A    between atoms: _521  and  _522
REMARK  215  A    between atoms: _526  and  _528
REMARK  216  A    between atoms: _528  and  _529
REMARK  217  A    between atoms: _528  and  _531
REMARK  218  A    between atoms: _531  and  _532
REMARK  219  A    between atoms: _532  and  _533
REMARK  220  A    between atoms: _533  and  _534
REMARK  221  A    between atoms: _534  and  _535
REMARK  222  A    between atoms: _539  and  _541
REMARK  223  A    between atoms: _541  and  _542
REMARK  224  A    between atoms: _541  and  _544
REMARK  225  A    between atoms: _544  and  _545
REMARK  226  A    between atoms: _545  and  _546
REMARK  227  A    between atoms: _548  and  _550
REMARK  228  A    between atoms: _550  and  _551
REMARK  229  A    between atoms: _550  and  _553
REMARK  230  A    between atoms: _553  and  _554
REMARK  231  A    between atoms: _556  and  _558
REMARK  232  A    between atoms: _558  and  _559
REMARK  233  A    between atoms: _558  and  _561
REMARK  234  A    between atoms: _561  and  _562
REMARK  235  A    between atoms: _562  and  _563
REMARK  236  A    between atoms: _563  and  _564
REMARK  237  A    between atoms: _564  and  _565
REMARK  238  A    between atoms: _569  and  _571
REMARK  239  A    between atoms: _571  and  _572
REMARK  240  A    between atoms: _571  and  _574
REMARK  241  A    between atoms: _574  and  _575
REMARK  242  A    between atoms: _577  and  _579
REMARK  243  A    between atoms: _579  and  _580
REMARK  244  A    between atoms: _579  and  _582
REMARK  245  A    between atoms: _582  and  _583
REMARK  246  A    between atoms: _587  and  _588
REMARK  247  A    between atoms: _593  and  _595
REMARK  248  A    between atoms: _595  and  _596
REMARK  249  A    between atoms: _595  and  _598
REMARK  250  A    between atoms: _598  and  _599
REMARK  251  A    between atoms: _604  and  _605
REMARK  252  A    between atoms: _607  and  _609
REMARK  253  A    between atoms: _609  and  _610
REMARK  254  A    between atoms: _609  and  _612
REMARK  255  A    between atoms: _612  and  _613
REMARK                            x       y       z     vdW  Elec       q    Type
REMARK                         _______ _______ _______ _____ _____    ______ ____
ROOT
ATOM      1  CA  GLU A   5      54.357  33.031  38.700  0.00  0.00    +0.149 C 
ENDROOT
BRANCH   1   4
ATOM      2  C   GLY A   4      55.596  30.902  38.281  0.00  0.00    +0.243 C 
ATOM      3  O   GLY A   4      55.610  30.582  39.456  0.00  0.00    -0.273 OA
ATOM      4  N   GLU A   5      55.008  32.012  37.836  0.00  0.00    -0.297 N 
ATOM      5  H   GLU A   5      55.004  32.177  36.809  0.00  0.00    +0.150 HD
BRANCH   2   6
ATOM      6  CA  GLY A   4      56.292  30.002  37.253  0.00  0.00    +0.176 C 
BRANCH   6   9
ATOM      7  C   VAL A   3      58.041  29.243  38.823  0.00  0.00    +0.241 C 
ATOM      8  O   VAL A   3      58.533  30.377  38.954  0.00  0.00    -0.273 OA
ATOM      9  N   GLY A   4      57.002  28.968  38.018  0.00  0.00    -0.295 N 
ATOM     10  H   GLY A   4      56.686  27.981  37.932  0.00  0.00    +0.150 HD
BRANCH   7  11
ATOM     11  CA  VAL A   3      58.537  28.083  39.680  0.00  0.00    +0.149 C 
BRANCH  11  13
ATOM     12  C   PRO A   2      60.850  27.380  40.105  0.00  0.00    +0.241 C 
ATOM     13  N   VAL A   3      59.897  28.309  40.188  0.00  0.00    -0.297 N 
ATOM     14  H   VAL A   3      60.124  29.224  40.627  0.00  0.00    +0.150 HD
ATOM     15  O   PRO A   2      60.646  26.268  39.615  0.00  0.00    -0.273 OA
BRANCH  12  22
ATOM     16  C   VAL A   1      61.787  27.767  43.083  0.00  0.00    +0.241 C 
ATOM     17  O   VAL A   1      61.111  28.788  42.970  0.00  0.00    -0.273 OA
ATOM     18  N   PRO A   2      62.395  27.206  42.050  0.00  0.00    -0.272 N 
ATOM     19  CD  PRO A   2      63.206  25.973  42.070  0.00  0.00    +0.094 C 
ATOM     20  CG  PRO A   2      63.693  25.836  40.656  0.00  0.00    +0.024 C 
ATOM     21  CB  PRO A   2      63.375  27.103  39.937  0.00  0.00    +0.031 C 
ATOM     22  CA  PRO A   2      62.223  27.736  40.706  0.00  0.00    +0.152 C 
BRANCH  16  23
ATOM     23  CA  VAL A   1      62.045  27.131  44.449  0.00  0.00    +0.145 C 
BRANCH  23  24
ATOM     24  CB  VAL A   1      60.733  27.073  45.288  0.00  0.00    +0.025 C 
ATOM     25  CG2 VAL A   1      61.041  26.796  46.774  0.00  0.00    +0.002 C 
ATOM     26  CG1 VAL A   1      59.841  25.954  44.755  0.00  0.00    +0.002 C 
ENDBRANCH  23  24
BRANCH  23  27
ATOM     27  N   VAL A   1      63.067  27.907  45.119  0.00  0.00    -0.238 NA
ATOM     28  H   VAL A   1      62.893  28.911  45.329  0.00  0.00    +0.142 HD
ENDBRANCH  23  27
ENDBRANCH  16  23
ENDBRANCH  12  22
ENDBRANCH  11  13
BRANCH  11  29
ATOM     29  CB  VAL A   3      57.496  27.962  40.837  0.00  0.00    +0.027 C 
ATOM     30  CG2 VAL A   3      57.738  26.744  41.674  0.00  0.00    +0.002 C 
ATOM     31  CG1 VAL A   3      57.478  29.184  41.668  0.00  0.00    +0.002 C 
ENDBRANCH  11  29
ENDBRANCH   7  11
ENDBRANCH   6   9
ENDBRANCH   2   6
ENDBRANCH   1   4
BRANCH   1  32
ATOM     32  C   GLU A   5      53.167  32.631  39.590  0.00  0.00    +0.241 C 
ATOM     33  O   GLU A   5      52.998  33.160  40.690  0.00  0.00    -0.273 OA
ATOM     34  N   ASP A   6      52.306  31.764  39.064  0.00  0.00    -0.297 N 
ATOM     35  H   ASP A   6      52.483  31.421  38.098  0.00  0.00    +0.150 HD
BRANCH  34  36
ATOM     36  CA  ASP A   6      51.124  31.266  39.768  0.00  0.00    +0.160 C 
BRANCH  36  37
ATOM     37  C   ASP A   6      51.385  30.590  41.128  0.00  0.00    +0.241 C 
ATOM     38  O   ASP A   6      50.512  30.557  42.008  0.00  0.00    -0.273 OA
ATOM     39  N   GLN A   7      52.573  30.026  41.293  0.00  0.00    -0.297 N 
ATOM     40  H   GLN A   7      53.280  30.109  40.535  0.00  0.00    +0.150 HD
BRANCH  39  41
ATOM     41  CA  GLN A   7      52.919  29.294  42.502  0.00  0.00    +0.149 C 
BRANCH  41  42
ATOM     42  C   GLN A   7      53.532  30.169  43.560  0.00  0.00    +0.241 C 
ATOM     43  O   GLN A   7      53.875  29.688  44.611  0.00  0.00    -0.273 OA
ATOM     44  N   LYS A   8      53.732  31.445  43.243  0.00  0.00    -0.298 N 
ATOM     45  H   LYS A   8      53.444  31.766  42.297  0.00  0.00    +0.150 HD
BRANCH  44  46
ATOM     46  CA  LYS A   8      54.340  32.433  44.158  0.00  0.00    +0.137 C 
BRANCH  46  47
ATOM     47  C   LYS A   8      53.687  32.447  45.552  0.00  0.00    +0.227 C 
ATOM     48  O   LYS A   8      54.347  32.224  46.574  0.00  0.00    -0.286 OA
ENDBRANCH  46  47
BRANCH  46  49
ATOM     49  CB  LYS A   8      54.305  33.847  43.537  0.00  0.00    +0.028 C 
BRANCH  49  50
ATOM     50  CG  LYS A   8      55.421  34.777  44.037  0.00  0.00    -0.000 C 
BRANCH  50  51
ATOM     51  CD  LYS A   8      55.158  36.266  43.745  0.00  0.00    -0.024 C 
BRANCH  51  52
ATOM     52  CE  LYS A   8      54.583  36.997  44.962  0.00  0.00    -0.086 C 
BRANCH  52  53
ATOM     53  NZ  LYS A   8      54.920  38.457  45.006  0.00  0.00    +0.380 N 
ATOM     54  HZ1 LYS A   8      54.498  38.884  45.855  0.00  0.00    -0.089 HD
ATOM     55  HZ2 LYS A   8      55.953  38.572  45.036  0.00  0.00    -0.089 HD
ATOM     56  HZ3 LYS A   8      54.542  38.925  44.157  0.00  0.00    -0.089 HD
ENDBRANCH  52  53
ENDBRANCH  51  52
ENDBRANCH  50  51
ENDBRANCH  49  50
ENDBRANCH  46  49
ENDBRANCH  44  46
ENDBRANCH  41  42
BRANCH  41  57
ATOM     57  CB  GLN A   7      53.906  28.163  42.158  0.00  0.00    +0.039 C 
BRANCH  57  58
ATOM     58  CG  GLN A   7      53.311  27.058  41.285  0.00  0.00    +0.087 C 
BRANCH  58  59
ATOM     59  CD  GLN A   7      52.189  26.326  41.998  0.00  0.00    +0.219 C 
ATOM     60  OE1 GLN A   7      52.041  26.421  43.227  0.00  0.00    -0.275 OA
ATOM     61  NE2 GLN A   7      51.386  25.596  41.233  0.00  0.00    -0.329 N 
ATOM     62 HE21 GLN A   7      50.594  25.074  41.660  0.00  0.00    +0.145 HD
ATOM     63 HE22 GLN A   7      51.549  25.546  40.207  0.00  0.00    +0.145 HD
ENDBRANCH  58  59
ENDBRANCH  57  58
ENDBRANCH  41  57
ENDBRANCH  39  41
ENDBRANCH  36  37
BRANCH  36  64
ATOM     64  CB  ASP A   6      50.365  30.303  38.864  0.00  0.00    +0.143 C 
BRANCH  64  65
ATOM     65  CG  ASP A   6      51.182  29.052  38.499  0.00  0.00    +0.367 C 
ATOM     66  OD2 ASP A   6      50.705  27.932  38.835  0.00  0.00    -0.246 OA
ATOM     67  OD1 ASP A   6      52.229  29.177  37.796  0.00  0.00    -0.246 OA
ENDBRANCH  64  65
ENDBRANCH  36  64
ENDBRANCH  34  36
ENDBRANCH   1  32
BRANCH   1  68
ATOM     68  CB  GLU A   5      53.939  34.239  37.852  0.00  0.00    +0.041 C 
BRANCH  68  69
ATOM     69  CG  GLU A   5      53.238  35.356  38.636  0.00  0.00    +0.116 C 
BRANCH  69  70
ATOM     70  CD  GLU A   5      54.178  36.095  39.589  0.00  0.00    +0.365 C 
ATOM     71  OE2 GLU A   5      53.732  36.459  40.701  0.00  0.00    -0.246 OA
ATOM     72  OE1 GLU A   5      55.342  36.358  39.211  0.00  0.00    -0.246 OA
ENDBRANCH  69  70
ENDBRANCH  68  69
ENDBRANCH   1  68
TORSDOF 30
REMARK  Name = ../refined-set-2016/2ov4/2ov4_pocket.pdb
REMARK  255 active torsions:
REMARK  status: ('A' for Active; 'I' for Inactive)
REMARK    1  A    between atoms: _1  and  _3
REMARK    2  A    between atoms: _3  and  _4
REMARK    3  A    between atoms: _3  and  _6
REMARK    4  A    between atoms: _6  and  _7
REMARK    5  A    between atoms: _13  and  _15
REMARK    6  A    between atoms: _15  and  _16
REMARK    7  A    between atoms: _15  and  _18
REMARK    8  A    between atoms: _18  and  _19
REMARK    9  A    between atoms: _21  and  _23
REMARK   10  A    between atoms: _23  and  _24
REMARK   11  A    between atoms: _26  and  _28
REMARK   12  A    between atoms: _28  and  _29
REMARK   13  A    between atoms: _28  and  _31
REMARK   14  A    between atoms: _31  and  _32
REMARK   15  A    between atoms: _35  and  _37
REMARK   16  A    between atoms: _37  and  _38
REMARK   17  A    between atoms: _37  and  _40
REMARK   18  A    between atoms: _40  and  _41
REMARK   19  A    between atoms: _41  and  _42
REMARK   20  A    between atoms: _48  and  _49
REMARK   21  A    between atoms: _54  and  _56
REMARK   22  A    between atoms: _56  and  _57
REMARK   23  A    between atoms: _56  and  _59
REMARK   24  A    between atoms: _59  and  _60
REMARK   25  A    between atoms: _62  and  _64
REMARK   26  A    between atoms: _64  and  _65
REMARK   27  A    between atoms: _67  and  _69
REMARK   28  A    between atoms: _69  and  _70
REMARK   29  A    between atoms: _69  and  _72
REMARK   30  A    between atoms: _75  and  _77
REMARK   31  A    between atoms: _77  and  _78
REMARK   32  A    between atoms: _77  and  _80
REMARK   33  A    between atoms: _80  and  _81
REMARK   34  A    between atoms: _84  and  _86
REMARK   35  A    between atoms: _86  and  _87
REMARK   36  A    between atoms: _86  and  _89
REMARK   37  A    between atoms: _89  and  _90
REMARK   38  A    between atoms: _93  and  _95
REMARK   39  A    between atoms: _95  and  _96
REMARK   40  A    between atoms: _95  and  _98
REMARK   41  A    between atoms: _98  and  _99
REMARK   42  A    between atoms: _102  and  _104
REMARK   43  A    between atoms: _104  and  _105
REMARK   44  A    between atoms: _107  and  _109
REMARK   45  A    between atoms: _109  and  _110
REMARK   46  A    between atoms: _109  and  _112
REMARK   47  A    between atoms: _112  and  _113
REMARK   48  A    between atoms: _118  and  _120
REMARK   49  A    between atoms: _120  and  _121
REMARK   50  A    between atoms: _120  and  _123
REMARK   51  A    between atoms: _123  and  _124
REMARK   52  A    between atoms: _129  and  _130
REMARK   53  A    between atoms: _132  and  _134
REMARK   54  A    between atoms: _134  and  _135
REMARK   55  A    between atoms: _134  and  _137
REMARK   56  A    between atoms: _137  and  _138
REMARK   57  A    between atoms: _141  and  _143
REMARK   58  A    between atoms: _143  and  _144
REMARK   59  A    between atoms: _146  and  _148
REMARK   60  A    between atoms: _148  and  _149
REMARK   61  A    between atoms: _152  and  _154
REMARK   62  A    between atoms: _154  and  _155
REMARK   63  A    between atoms: _154  and  _157
REMARK   64  A    between atoms: _157  and  _158
REMARK   65  A    between atoms: _161  and  _163
REMARK   66  A    between atoms: _163  and  _164
REMARK   67  A    between atoms: _163  and  _166
REMARK   68  A    between atoms: _166  and  _167
REMARK   69  A    between atoms: _167  and  _168
REMARK   70  A    between atoms: _168  and  _169
REMARK   71  A    between atoms: _178  and  _180
REMARK   72  A    between atoms: _180  and  _181
REMARK   73  A    between atoms: _180  and  _183
REMARK   74  A    between atoms: _183  and  _184
REMARK   75  A    between atoms: _184  and  _185
REMARK   76  A    between atoms: _190  and  _192
REMARK   77  A    between atoms: _192  and  _193
REMARK   78  A    between atoms: _192  and  _195
REMARK   79  A    between atoms: _195  and  _196
REMARK   80  A    between atoms: _202  and  _204
REMARK   81  A    between atoms: _204  and  _205
REMARK   82  A    between atoms: _204  and  _207
REMARK   83  A    between atoms: _209  and  _211
REMARK   84  A    between atoms: _211  and  _212
REMARK   85  A    between atoms: _211  and  _214
REMARK   86  A    between atoms: _214  and  _215
REMARK   87  A    between atoms: _218  and  _220
REMARK   88  A    between atoms: _220  and  _221
REMARK   89  A    between atoms: _220  and  _223
REMARK   90  A    between atoms: _226  and  _228
REMARK   91  A    between atoms: _228  and  _229
REMARK   92  A    between atoms: _228  and  _231
REMARK   93  A    between atoms: _231  and  _232
REMARK   94  A    between atoms: _237  and  _239
REMARK   95  A    between atoms: _239  and  _240
REMARK   96  A    between atoms: _243  and  _245
REMARK   97  A    between atoms: _245  and  _246
REMARK   98  A    between atoms: _245  and  _248
REMARK   99  A    between atoms: _248  and  _249
REMARK  100  A    between atoms: _252  and  _254
REMARK  101  A    between atoms: _254  and  _255
REMARK  102  A    between atoms: _254  and  _257
REMARK  103  A    between atoms: _260  and  _262
REMARK  104  A    between atoms: _262  and  _263
REMARK  105  A    between atoms: _262  and  _265
REMARK  106  A    between atoms: _265  and  _266
REMARK  107  A    between atoms: _266  and  _267
REMARK  108  A    between atoms: _272  and  _274
REMARK  109  A    between atoms: _274  and  _275
REMARK  110  A    between atoms: _274  and  _277
REMARK  111  A    between atoms: _277  and  _278
REMARK  112  A    between atoms: _281  and  _283
REMARK  113  A    between atoms: _283  and  _284
REMARK  114  A    between atoms: _283  and  _286
REMARK  115  A    between atoms: _286  and  _287
REMARK  116  A    between atoms: _292  and  _293
REMARK  117  A    between atoms: _295  and  _297
REMARK  118  A    between atoms: _297  and  _298
REMARK  119  A    between atoms: _297  and  _300
REMARK  120  A    between atoms: _300  and  _301
REMARK  121  A    between atoms: _301  and  _302
REMARK  122  A    between atoms: _307  and  _309
REMARK  123  A    between atoms: _309  and  _310
REMARK  124  A    between atoms: _309  and  _312
REMARK  125  A    between atoms: _312  and  _313
REMARK  126  A    between atoms: _313  and  _314
REMARK  127  A    between atoms: _314  and  _315
REMARK  128  A    between atoms: _315  and  _316
REMARK  129  A    between atoms: _320  and  _322
REMARK  130  A    between atoms: _322  and  _323
REMARK  131  A    between atoms: _322  and  _325
REMARK  132  A    between atoms: _325  and  _326
REMARK  133  A    between atoms: _331  and  _332
REMARK  134  A    between atoms: _334  and  _336
REMARK  135  A    between atoms: _336  and  _337
REMARK  136  A    between atoms: _336  and  _339
REMARK  137  A    between atoms: _339  and  _340
REMARK  138  A    between atoms: _340  and  _341
REMARK  139  A    between atoms: _343  and  _345
REMARK  140  A    between atoms: _345  and  _346
REMARK  141  A    between atoms: _345  and  _348
REMARK  142  A    between atoms: _352  and  _353
REMARK  143  A    between atoms: _358  and  _360
REMARK  144  A    between atoms: _360  and  _361
REMARK  145  A    between atoms: _360  and  _363
REMARK  146  A    between atoms: _366  and  _368
REMARK  147  A    between atoms: _368  and  _369
REMARK  148  A    between atoms: _371  and  _373
REMARK  149  A    between atoms: _373  and  _374
REMARK  150  A    between atoms: _373  and  _376
REMARK  151  A    between atoms: _376  and  _377
REMARK  152  A    between atoms: _377  and  _378
REMARK  153  A    between atoms: _381  and  _383
REMARK  154  A    between atoms: _383  and  _384
REMARK  155  A    between atoms: _383  and  _386
REMARK  156  A    between atoms: _386  and  _387
REMARK  157  A    between atoms: _390  and  _392
REMARK  158  A    between atoms: _392  and  _393
REMARK  159  A    between atoms: _392  and  _395
REMARK  160  A    between atoms: _395  and  _396
REMARK  161  A    between atoms: _396  and  _397
REMARK  162  A    between atoms: _402  and  _404
REMARK  163  A    between atoms: _404  and  _405
REMARK  164  A    between atoms: _404  and  _407
REMARK  165  A    between atoms: _407  and  _408
REMARK  166  A    between atoms: _408  and  _409
REMARK  167  A    between atoms: _409  and  _410
REMARK  168  A    between atoms: _410  and  _411
REMARK  169  A    between atoms: _415  and  _417
REMARK  170  A    between atoms: _417  and  _418
REMARK  171  A    between atoms: _417  and  _420
REMARK  172  A    between atoms: _420  and  _421
REMARK  173  A    between atoms: _426  and  _428
REMARK  174  A    between atoms: _428  and  _429
REMARK  175  A    between atoms: _428  and  _431
REMARK  176  A    between atoms: _431  and  _432
REMARK  177  A    between atoms: _435  and  _437
REMARK  178  A    between atoms: _437  and  _438
REMARK  179  A    between atoms: _437  and  _440
REMARK  180  A    between atoms: _440  and  _441
REMARK  181  A    between atoms: _445  and  _446
REMARK  182  A    between atoms: _451  and  _453
REMARK  183  A    between atoms: _453  and  _454
REMARK  184  A    between atoms: _453  and  _456
REMARK  185  A    between atoms: _459  and  _461
REMARK  186  A    between atoms: _461  and  _462
REMARK  187  A    between atoms: _464  and  _466
REMARK  188  A    between atoms: _466  and  _467
REMARK  189  A    between atoms: _470  and  _472
REMARK  190  A    between atoms: _472  and  _473
REMARK  191  A    between atoms: _472  and  _475
REMARK  192  A    between atoms: _475  and  _476
REMARK  193  A    between atoms: _476  and  _477
REMARK  194  A    between atoms: _477  and  _478
REMARK  195  A    between atoms: _487  and  _489
REMARK  196  A    between atoms: _489  and  _490
REMARK  197  A    between atoms: _489  and  _492
REMARK  198  A    between atoms: _492  and  _493
REMARK  199  A    between atoms: _496  and  _498
REMARK  200  A    between atoms: _498  and  _499
REMARK  201  A    between atoms: _498  and  _501
REMARK  202  A    between atoms: _501  and  _502
REMARK  203  A    between atoms: _502  and  _503
REMARK  204  A    between atoms: _505  and  _507
REMARK  205  A    between atoms: _507  and  _508
REMARK  206  A    between atoms: _507  and  _510
REMARK  207  A    between atoms: _510  and  _511
REMARK  208  A    between atoms: _513  and  _515
REMARK  209  A    between atoms: _515  and  _516
REMARK  210  A    between atoms: _515  and  _518
REMARK  211  A    between atoms: _518  and  _519
REMARK  212  A    between atoms: _519  and  _520
REMARK  213  A    between atoms: _520  and  _521
REMARK  214  A    between atoms: _521  and  _522
REMARK  215  A    between atoms: _526  and  _528
REMARK  216  A    between atoms: _528  and  _529
REMARK  217  A    between atoms: _528  and  _531
REMARK  218  A    between atoms: _531  and  _532
REMARK  219  A    between atoms: _532  and  _533
REMARK  220  A    between atoms: _533  and  _534
REMARK  221  A    between atoms: _534  and  _535
REMARK  222  A    between atoms: _539  and  _541
REMARK  223  A    between atoms: _541  and  _542
REMARK  224  A    between atoms: _541  and  _544
REMARK  225  A    between atoms: _544  and  _545
REMARK  226  A    between atoms: _545  and  _546
REMARK  227  A    between atoms: _548  and  _550
REMARK  228  A    between atoms: _550  and  _551
REMARK  229  A    between atoms: _550  and  _553
REMARK  230  A    between atoms: _553  and  _554
REMARK  231  A    between atoms: _556  and  _558
REMARK  232  A    between atoms: _558  and  _559
REMARK  233  A    between atoms: _558  and  _561
REMARK  234  A    between atoms: _561  and  _562
REMARK  235  A    between atoms: _562  and  _563
REMARK  236  A    between atoms: _563  and  _564
REMARK  237  A    between atoms: _564  and  _565
REMARK  238  A    between atoms: _569  and  _571
REMARK  239  A    between atoms: _571  and  _572
REMARK  240  A    between atoms: _571  and  _574
REMARK  241  A    between atoms: _574  and  _575
REMARK  242  A    between atoms: _577  and  _579
REMARK  243  A    between atoms: _579  and  _580
REMARK  244  A    between atoms: _579  and  _582
REMARK  245  A    between atoms: _582  and  _583
REMARK  246  A    between atoms: _587  and  _588
REMARK  247  A    between atoms: _593  and  _595
REMARK  248  A    between atoms: _595  and  _596
REMARK  249  A    between atoms: _595  and  _598
REMARK  250  A    between atoms: _598  and  _599
REMARK  251  A    between atoms: _604  and  _605
REMARK  252  A    between atoms: _607  and  _609
REMARK  253  A    between atoms: _609  and  _610
REMARK  254  A    between atoms: _609  and  _612
REMARK  255  A    between atoms: _612  and  _613
REMARK                            x       y       z     vdW  Elec       q    Type
REMARK                         _______ _______ _______ _____ _____    ______ ____
ROOT
ATOM      1  C   HIS A   1      53.153  29.073  48.471  0.00  0.00    +0.239 C 
ATOM      2  O   HIS A   1      53.288  28.542  49.545  0.00  0.00    -0.274 OA
ATOM      3  N   ILE A   2      54.175  29.633  47.817  0.00  0.00    -0.298 N 
ATOM      4  H   ILE A   2      54.004  30.047  46.878  0.00  0.00    +0.150 HD
ENDROOT
BRANCH   1   5
ATOM      5  CA  HIS A   1      51.797  29.071  47.772  0.00  0.00    +0.151 C 
BRANCH   5   6
ATOM      6  N   HIS A   1      51.669  30.337  47.059  0.00  0.00    -0.238 NA
ATOM      7  H   HIS A   1      51.516  30.323  46.030  0.00  0.00    +0.142 HD
ENDBRANCH   5   6
BRANCH   5   8
ATOM      8  CB  HIS A   1      51.755  27.917  46.736  0.00  0.00    +0.074 C 
BRANCH   8   9
ATOM      9  CG  HIS A   1      50.368  27.468  46.378  0.00  0.00    +0.082 A 
ATOM     10  CD2 HIS A   1      49.167  27.715  46.965  0.00  0.00    +0.115 A 
ATOM     11  NE2 HIS A   1      48.223  27.006  46.267  0.00  0.00    -0.221 NA
ATOM     12  CE1 HIS A   1      48.817  26.360  45.279  0.00  0.00    +0.199 A 
ATOM     13  ND1 HIS A   1      50.112  26.615  45.325  0.00  0.00    -0.227 NA
ENDBRANCH   8   9
ENDBRANCH   5   8
ENDBRANCH   1   5
BRANCH   3  14
ATOM     14  CA  ILE A   2      55.514  29.683  48.372  0.00  0.00    +0.137 C 
BRANCH  14  15
ATOM     15  C   ILE A   2      55.638  30.625  49.569  0.00  0.00    +0.227 C 
ATOM     16  O   ILE A   2      56.353  30.343  50.537  0.00  0.00    -0.286 OA
ENDBRANCH  14  15
BRANCH  14  17
ATOM     17  CB  ILE A   2      56.547  29.963  47.316  0.00  0.00    +0.026 C 
ATOM     18  CG2 ILE A   2      57.836  30.431  47.993  0.00  0.00    +0.002 C 
BRANCH  17  19
ATOM     19  CG1 ILE A   2      56.759  28.675  46.497  0.00  0.00    +0.002 C 
ATOM     20  CD1 ILE A   2      57.513  28.859  45.218  0.00  0.00    +0.000 C 
ENDBRANCH  17  19
ENDBRANCH  14  17
ENDBRANCH   3  14
TORSDOF 8
REMARK  Name = ../refined-set-2016/2ov4/2ov4_pocket.pdb
REMARK  255 active torsions:
REMARK  status: ('A' for Active; 'I' for Inactive)
REMARK    1  A    between atoms: _1  and  _3
REMARK    2  A    between atoms: _3  and  _4
REMARK    3  A    between atoms: _3  and  _6
REMARK    4  A    between atoms: _6  and  _7
REMARK    5  A    between atoms: _13  and  _15
REMARK    6  A    between atoms: _15  and  _16
REMARK    7  A    between atoms: _15  and  _18
REMARK    8  A    between atoms: _18  and  _19
REMARK    9  A    between atoms: _21  and  _23
REMARK   10  A    between atoms: _23  and  _24
REMARK   11  A    between atoms: _26  and  _28
REMARK   12  A    between atoms: _28  and  _29
REMARK   13  A    between atoms: _28  and  _31
REMARK   14  A    between atoms: _31  and  _32
REMARK   15  A    between atoms: _35  and  _37
REMARK   16  A    between atoms: _37  and  _38
REMARK   17  A    between atoms: _37  and  _40
REMARK   18  A    between atoms: _40  and  _41
REMARK   19  A    between atoms: _41  and  _42
REMARK   20  A    between atoms: _48  and  _49
REMARK   21  A    between atoms: _54  and  _56
REMARK   22  A    between atoms: _56  and  _57
REMARK   23  A    between atoms: _56  and  _59
REMARK   24  A    between atoms: _59  and  _60
REMARK   25  A    between atoms: _62  and  _64
REMARK   26  A    between atoms: _64  and  _65
REMARK   27  A    between atoms: _67  and  _69
REMARK   28  A    between atoms: _69  and  _70
REMARK   29  A    between atoms: _69  and  _72
REMARK   30  A    between atoms: _75  and  _77
REMARK   31  A    between atoms: _77  and  _78
REMARK   32  A    between atoms: _77  and  _80
REMARK   33  A    between atoms: _80  and  _81
REMARK   34  A    between atoms: _84  and  _86
REMARK   35  A    between atoms: _86  and  _87
REMARK   36  A    between atoms: _86  and  _89
REMARK   37  A    between atoms: _89  and  _90
REMARK   38  A    between atoms: _93  and  _95
REMARK   39  A    between atoms: _95  and  _96
REMARK   40  A    between atoms: _95  and  _98
REMARK   41  A    between atoms: _98  and  _99
REMARK   42  A    between atoms: _102  and  _104
REMARK   43  A    between atoms: _104  and  _105
REMARK   44  A    between atoms: _107  and  _109
REMARK   45  A    between atoms: _109  and  _110
REMARK   46  A    between atoms: _109  and  _112
REMARK   47  A    between atoms: _112  and  _113
REMARK   48  A    between atoms: _118  and  _120
REMARK   49  A    between atoms: _120  and  _121
REMARK   50  A    between atoms: _120  and  _123
REMARK   51  A    between atoms: _123  and  _124
REMARK   52  A    between atoms: _129  and  _130
REMARK   53  A    between atoms: _132  and  _134
REMARK   54  A    between atoms: _134  and  _135
REMARK   55  A    between atoms: _134  and  _137
REMARK   56  A    between atoms: _137  and  _138
REMARK   57  A    between atoms: _141  and  _143
REMARK   58  A    between atoms: _143  and  _144
REMARK   59  A    between atoms: _146  and  _148
REMARK   60  A    between atoms: _148  and  _149
REMARK   61  A    between atoms: _152  and  _154
REMARK   62  A    between atoms: _154  and  _155
REMARK   63  A    between atoms: _154  and  _157
REMARK   64  A    between atoms: _157  and  _158
REMARK   65  A    between atoms: _161  and  _163
REMARK   66  A    between atoms: _163  and  _164
REMARK   67  A    between atoms: _163  and  _166
REMARK   68  A    between atoms: _166  and  _167
REMARK   69  A    between atoms: _167  and  _168
REMARK   70  A    between atoms: _168  and  _169
REMARK   71  A    between atoms: _178  and  _180
REMARK   72  A    between atoms: _180  and  _181
REMARK   73  A    between atoms: _180  and  _183
REMARK   74  A    between atoms: _183  and  _184
REMARK   75  A    between atoms: _184  and  _185
REMARK   76  A    between atoms: _190  and  _192
REMARK   77  A    between atoms: _192  and  _193
REMARK   78  A    between atoms: _192  and  _195
REMARK   79  A    between atoms: _195  and  _196
REMARK   80  A    between atoms: _202  and  _204
REMARK   81  A    between atoms: _204  and  _205
REMARK   82  A    between atoms: _204  and  _207
REMARK   83  A    between atoms: _209  and  _211
REMARK   84  A    between atoms: _211  and  _212
REMARK   85  A    between atoms: _211  and  _214
REMARK   86  A    between atoms: _214  and  _215
REMARK   87  A    between atoms: _218  and  _220
REMARK   88  A    between atoms: _220  and  _221
REMARK   89  A    between atoms: _220  and  _223
REMARK   90  A    between atoms: _226  and  _228
REMARK   91  A    between atoms: _228  and  _229
REMARK   92  A    between atoms: _228  and  _231
REMARK   93  A    between atoms: _231  and  _232
REMARK   94  A    between atoms: _237  and  _239
REMARK   95  A    between atoms: _239  and  _240
REMARK   96  A    between atoms: _243  and  _245
REMARK   97  A    between atoms: _245  and  _246
REMARK   98  A    between atoms: _245  and  _248
REMARK   99  A    between atoms: _248  and  _249
REMARK  100  A    between atoms: _252  and  _254
REMARK  101  A    between atoms: _254  and  _255
REMARK  102  A    between atoms: _254  and  _257
REMARK  103  A    between atoms: _260  and  _262
REMARK  104  A    between atoms: _262  and  _263
REMARK  105  A    between atoms: _262  and  _265
REMARK  106  A    between atoms: _265  and  _266
REMARK  107  A    between atoms: _266  and  _267
REMARK  108  A    between atoms: _272  and  _274
REMARK  109  A    between atoms: _274  and  _275
REMARK  110  A    between atoms: _274  and  _277
REMARK  111  A    between atoms: _277  and  _278
REMARK  112  A    between atoms: _281  and  _283
REMARK  113  A    between atoms: _283  and  _284
REMARK  114  A    between atoms: _283  and  _286
REMARK  115  A    between atoms: _286  and  _287
REMARK  116  A    between atoms: _292  and  _293
REMARK  117  A    between atoms: _295  and  _297
REMARK  118  A    between atoms: _297  and  _298
REMARK  119  A    between atoms: _297  and  _300
REMARK  120  A    between atoms: _300  and  _301
REMARK  121  A    between atoms: _301  and  _302
REMARK  122  A    between atoms: _307  and  _309
REMARK  123  A    between atoms: _309  and  _310
REMARK  124  A    between atoms: _309  and  _312
REMARK  125  A    between atoms: _312  and  _313
REMARK  126  A    between atoms: _313  and  _314
REMARK  127  A    between atoms: _314  and  _315
REMARK  128  A    between atoms: _315  and  _316
REMARK  129  A    between atoms: _320  and  _322
REMARK  130  A    between atoms: _322  and  _323
REMARK  131  A    between atoms: _322  and  _325
REMARK  132  A    between atoms: _325  and  _326
REMARK  133  A    between atoms: _331  and  _332
REMARK  134  A    between atoms: _334  and  _336
REMARK  135  A    between atoms: _336  and  _337
REMARK  136  A    between atoms: _336  and  _339
REMARK  137  A    between atoms: _339  and  _340
REMARK  138  A    between atoms: _340  and  _341
REMARK  139  A    between atoms: _343  and  _345
REMARK  140  A    between atoms: _345  and  _346
REMARK  141  A    between atoms: _345  and  _348
REMARK  142  A    between atoms: _352  and  _353
REMARK  143  A    between atoms: _358  and  _360
REMARK  144  A    between atoms: _360  and  _361
REMARK  145  A    between atoms: _360  and  _363
REMARK  146  A    between atoms: _366  and  _368
REMARK  147  A    between atoms: _368  and  _369
REMARK  148  A    between atoms: _371  and  _373
REMARK  149  A    between atoms: _373  and  _374
REMARK  150  A    between atoms: _373  and  _376
REMARK  151  A    between atoms: _376  and  _377
REMARK  152  A    between atoms: _377  and  _378
REMARK  153  A    between atoms: _381  and  _383
REMARK  154  A    between atoms: _383  and  _384
REMARK  155  A    between atoms: _383  and  _386
REMARK  156  A    between atoms: _386  and  _387
REMARK  157  A    between atoms: _390  and  _392
REMARK  158  A    between atoms: _392  and  _393
REMARK  159  A    between atoms: _392  and  _395
REMARK  160  A    between atoms: _395  and  _396
REMARK  161  A    between atoms: _396  and  _397
REMARK  162  A    between atoms: _402  and  _404
REMARK  163  A    between atoms: _404  and  _405
REMARK  164  A    between atoms: _404  and  _407
REMARK  165  A    between atoms: _407  and  _408
REMARK  166  A    between atoms: _408  and  _409
REMARK  167  A    between atoms: _409  and  _410
REMARK  168  A    between atoms: _410  and  _411
REMARK  169  A    between atoms: _415  and  _417
REMARK  170  A    between atoms: _417  and  _418
REMARK  171  A    between atoms: _417  and  _420
REMARK  172  A    between atoms: _420  and  _421
REMARK  173  A    between atoms: _426  and  _428
REMARK  174  A    between atoms: _428  and  _429
REMARK  175  A    between atoms: _428  and  _431
REMARK  176  A    between atoms: _431  and  _432
REMARK  177  A    between atoms: _435  and  _437
REMARK  178  A    between atoms: _437  and  _438
REMARK  179  A    between atoms: _437  and  _440
REMARK  180  A    between atoms: _440  and  _441
REMARK  181  A    between atoms: _445  and  _446
REMARK  182  A    between atoms: _451  and  _453
REMARK  183  A    between atoms: _453  and  _454
REMARK  184  A    between atoms: _453  and  _456
REMARK  185  A    between atoms: _459  and  _461
REMARK  186  A    between atoms: _461  and  _462
REMARK  187  A    between atoms: _464  and  _466
REMARK  188  A    between atoms: _466  and  _467
REMARK  189  A    between atoms: _470  and  _472
REMARK  190  A    between atoms: _472  and  _473
REMARK  191  A    between atoms: _472  and  _475
REMARK  192  A    between atoms: _475  and  _476
REMARK  193  A    between atoms: _476  and  _477
REMARK  194  A    between atoms: _477  and  _478
REMARK  195  A    between atoms: _487  and  _489
REMARK  196  A    between atoms: _489  and  _490
REMARK  197  A    between atoms: _489  and  _492
REMARK  198  A    between atoms: _492  and  _493
REMARK  199  A    between atoms: _496  and  _498
REMARK  200  A    between atoms: _498  and  _499
REMARK  201  A    between atoms: _498  and  _501
REMARK  202  A    between atoms: _501  and  _502
REMARK  203  A    between atoms: _502  and  _503
REMARK  204  A    between atoms: _505  and  _507
REMARK  205  A    between atoms: _507  and  _508
REMARK  206  A    between atoms: _507  and  _510
REMARK  207  A    between atoms: _510  and  _511
REMARK  208  A    between atoms: _513  and  _515
REMARK  209  A    between atoms: _515  and  _516
REMARK  210  A    between atoms: _515  and  _518
REMARK  211  A    between atoms: _518  and  _519
REMARK  212  A    between atoms: _519  and  _520
REMARK  213  A    between atoms: _520  and  _521
REMARK  214  A    between atoms: _521  and  _522
REMARK  215  A    between atoms: _526  and  _528
REMARK  216  A    between atoms: _528  and  _529
REMARK  217  A    between atoms: _528  and  _531
REMARK  218  A    between atoms: _531  and  _532
REMARK  219  A    between atoms: _532  and  _533
REMARK  220  A    between atoms: _533  and  _534
REMARK  221  A    between atoms: _534  and  _535
REMARK  222  A    between atoms: _539  and  _541
REMARK  223  A    between atoms: _541  and  _542
REMARK  224  A    between atoms: _541  and  _544
REMARK  225  A    between atoms: _544  and  _545
REMARK  226  A    between atoms: _545  and  _546
REMARK  227  A    between atoms: _548  and  _550
REMARK  228  A    between atoms: _550  and  _551
REMARK  229  A    between atoms: _550  and  _553
REMARK  230  A    between atoms: _553  and  _554
REMARK  231  A    between atoms: _556  and  _558
REMARK  232  A    between atoms: _558  and  _559
REMARK  233  A    between atoms: _558  and  _561
REMARK  234  A    between atoms: _561  and  _562
REMARK  235  A    between atoms: _562  and  _563
REMARK  236  A    between atoms: _563  and  _564
REMARK  237  A    between atoms: _564  and  _565
REMARK  238  A    between atoms: _569  and  _571
REMARK  239  A    between atoms: _571  and  _572
REMARK  240  A    between atoms: _571  and  _574
REMARK  241  A    between atoms: _574  and  _575
REMARK  242  A    between atoms: _577  and  _579
REMARK  243  A    between atoms: _579  and  _580
REMARK  244  A    between atoms: _579  and  _582
REMARK  245  A    between atoms: _582  and  _583
REMARK  246  A    between atoms: _587  and  _588
REMARK  247  A    between atoms: _593  and  _595
REMARK  248  A    between atoms: _595  and  _596
REMARK  249  A    between atoms: _595  and  _598
REMARK  250  A    between atoms: _598  and  _599
REMARK  251  A    between atoms: _604  and  _605
REMARK  252  A    between atoms: _607  and  _609
REMARK  253  A    between atoms: _609  and  _610
REMARK  254  A    between atoms: _609  and  _612
REMARK  255  A    between atoms: _612  and  _613
REMARK                            x       y       z     vdW  Elec       q    Type
REMARK                         _______ _______ _______ _____ _____    ______ ____
ROOT
ATOM      1  C   ILE A   1      61.057  33.864  37.907  0.00  0.00    +0.241 C 
ATOM      2  O   ILE A   1      61.664  34.900  38.177  0.00  0.00    -0.273 OA
ATOM      3  N   PRO A   2      61.082  33.324  36.684  0.00  0.00    -0.273 N 
ATOM      4  CD  PRO A   2      60.171  32.299  36.145  0.00  0.00    +0.094 C 
ATOM      5  CG  PRO A   2      60.818  31.921  34.801  0.00  0.00    +0.024 C 
ATOM      6  CB  PRO A   2      61.837  32.952  34.446  0.00  0.00    +0.030 C 
ATOM      7  CA  PRO A   2      61.860  33.967  35.615  0.00  0.00    +0.140 C 
ENDROOT
BRANCH   7   8
ATOM      8  C   PRO A   2      61.244  35.305  35.223  0.00  0.00    +0.227 C 
ATOM      9  O   PRO A   2      60.034  35.527  35.400  0.00  0.00    -0.286 OA
ENDBRANCH   7   8
BRANCH   1  10
ATOM     10  CA  ILE A   1      60.252  33.149  39.012  0.00  0.00    +0.145 C 
BRANCH  10  11
ATOM     11  N   ILE A   1      61.051  32.944  40.220  0.00  0.00    -0.238 NA
ATOM     12  H   ILE A   1      60.897  33.614  41.000  0.00  0.00    +0.142 HD
ENDBRANCH  10  11
BRANCH  10  13
ATOM     13  CB  ILE A   1      59.075  34.067  39.386  0.00  0.00    +0.025 C 
ATOM     14  CG2 ILE A   1      58.336  34.481  38.154  0.00  0.00    +0.002 C 
BRANCH  13  15
ATOM     15  CG1 ILE A   1      58.181  33.367  40.428  0.00  0.00    +0.002 C 
ATOM     16  CD1 ILE A   1      57.869  34.176  41.662  0.00  0.00    +0.000 C 
ENDBRANCH  13  15
ENDBRANCH  10  13
ENDBRANCH   1  10
TORSDOF 5
REMARK  Name = ../refined-set-2016/2ov4/2ov4_pocket.pdb
REMARK  255 active torsions:
REMARK  status: ('A' for Active; 'I' for Inactive)
REMARK    1  A    between atoms: _1  and  _3
REMARK    2  A    between atoms: _3  and  _4
REMARK    3  A    between atoms: _3  and  _6
REMARK    4  A    between atoms: _6  and  _7
REMARK    5  A    between atoms: _13  and  _15
REMARK    6  A    between atoms: _15  and  _16
REMARK    7  A    between atoms: _15  and  _18
REMARK    8  A    between atoms: _18  and  _19
REMARK    9  A    between atoms: _21  and  _23
REMARK   10  A    between atoms: _23  and  _24
REMARK   11  A    between atoms: _26  and  _28
REMARK   12  A    between atoms: _28  and  _29
REMARK   13  A    between atoms: _28  and  _31
REMARK   14  A    between atoms: _31  and  _32
REMARK   15  A    between atoms: _35  and  _37
REMARK   16  A    between atoms: _37  and  _38
REMARK   17  A    between atoms: _37  and  _40
REMARK   18  A    between atoms: _40  and  _41
REMARK   19  A    between atoms: _41  and  _42
REMARK   20  A    between atoms: _48  and  _49
REMARK   21  A    between atoms: _54  and  _56
REMARK   22  A    between atoms: _56  and  _57
REMARK   23  A    between atoms: _56  and  _59
REMARK   24  A    between atoms: _59  and  _60
REMARK   25  A    between atoms: _62  and  _64
REMARK   26  A    between atoms: _64  and  _65
REMARK   27  A    between atoms: _67  and  _69
REMARK   28  A    between atoms: _69  and  _70
REMARK   29  A    between atoms: _69  and  _72
REMARK   30  A    between atoms: _75  and  _77
REMARK   31  A    between atoms: _77  and  _78
REMARK   32  A    between atoms: _77  and  _80
REMARK   33  A    between atoms: _80  and  _81
REMARK   34  A    between atoms: _84  and  _86
REMARK   35  A    between atoms: _86  and  _87
REMARK   36  A    between atoms: _86  and  _89
REMARK   37  A    between atoms: _89  and  _90
REMARK   38  A    between atoms: _93  and  _95
REMARK   39  A    between atoms: _95  and  _96
REMARK   40  A    between atoms: _95  and  _98
REMARK   41  A    between atoms: _98  and  _99
REMARK   42  A    between atoms: _102  and  _104
REMARK   43  A    between atoms: _104  and  _105
REMARK   44  A    between atoms: _107  and  _109
REMARK   45  A    between atoms: _109  and  _110
REMARK   46  A    between atoms: _109  and  _112
REMARK   47  A    between atoms: _112  and  _113
REMARK   48  A    between atoms: _118  and  _120
REMARK   49  A    between atoms: _120  and  _121
REMARK   50  A    between atoms: _120  and  _123
REMARK   51  A    between atoms: _123  and  _124
REMARK   52  A    between atoms: _129  and  _130
REMARK   53  A    between atoms: _132  and  _134
REMARK   54  A    between atoms: _134  and  _135
REMARK   55  A    between atoms: _134  and  _137
REMARK   56  A    between atoms: _137  and  _138
REMARK   57  A    between atoms: _141  and  _143
REMARK   58  A    between atoms: _143  and  _144
REMARK   59  A    between atoms: _146  and  _148
REMARK   60  A    between atoms: _148  and  _149
REMARK   61  A    between atoms: _152  and  _154
REMARK   62  A    between atoms: _154  and  _155
REMARK   63  A    between atoms: _154  and  _157
REMARK   64  A    between atoms: _157  and  _158
REMARK   65  A    between atoms: _161  and  _163
REMARK   66  A    between atoms: _163  and  _164
REMARK   67  A    between atoms: _163  and  _166
REMARK   68  A    between atoms: _166  and  _167
REMARK   69  A    between atoms: _167  and  _168
REMARK   70  A    between atoms: _168  and  _169
REMARK   71  A    between atoms: _178  and  _180
REMARK   72  A    between atoms: _180  and  _181
REMARK   73  A    between atoms: _180  and  _183
REMARK   74  A    between atoms: _183  and  _184
REMARK   75  A    between atoms: _184  and  _185
REMARK   76  A    between atoms: _190  and  _192
REMARK   77  A    between atoms: _192  and  _193
REMARK   78  A    between atoms: _192  and  _195
REMARK   79  A    between atoms: _195  and  _196
REMARK   80  A    between atoms: _202  and  _204
REMARK   81  A    between atoms: _204  and  _205
REMARK   82  A    between atoms: _204  and  _207
REMARK   83  A    between atoms: _209  and  _211
REMARK   84  A    between atoms: _211  and  _212
REMARK   85  A    between atoms: _211  and  _214
REMARK   86  A    between atoms: _214  and  _215
REMARK   87  A    between atoms: _218  and  _220
REMARK   88  A    between atoms: _220  and  _221
REMARK   89  A    between atoms: _220  and  _223
REMARK   90  A    between atoms: _226  and  _228
REMARK   91  A    between atoms: _228  and  _229
REMARK   92  A    between atoms: _228  and  _231
REMARK   93  A    between atoms: _231  and  _232
REMARK   94  A    between atoms: _237  and  _239
REMARK   95  A    between atoms: _239  and  _240
REMARK   96  A    between atoms: _243  and  _245
REMARK   97  A    between atoms: _245  and  _246
REMARK   98  A    between atoms: _245  and  _248
REMARK   99  A    between atoms: _248  and  _249
REMARK  100  A    between atoms: _252  and  _254
REMARK  101  A    between atoms: _254  and  _255
REMARK  102  A    between atoms: _254  and  _257
REMARK  103  A    between atoms: _260  and  _262
REMARK  104  A    between atoms: _262  and  _263
REMARK  105  A    between atoms: _262  and  _265
REMARK  106  A    between atoms: _265  and  _266
REMARK  107  A    between atoms: _266  and  _267
REMARK  108  A    between atoms: _272  and  _274
REMARK  109  A    between atoms: _274  and  _275
REMARK  110  A    between atoms: _274  and  _277
REMARK  111  A    between atoms: _277  and  _278
REMARK  112  A    between atoms: _281  and  _283
REMARK  113  A    between atoms: _283  and  _284
REMARK  114  A    between atoms: _283  and  _286
REMARK  115  A    between atoms: _286  and  _287
REMARK  116  A    between atoms: _292  and  _293
REMARK  117  A    between atoms: _295  and  _297
REMARK  118  A    between atoms: _297  and  _298
REMARK  119  A    between atoms: _297  and  _300
REMARK  120  A    between atoms: _300  and  _301
REMARK  121  A    between atoms: _301  and  _302
REMARK  122  A    between atoms: _307  and  _309
REMARK  123  A    between atoms: _309  and  _310
REMARK  124  A    between atoms: _309  and  _312
REMARK  125  A    between atoms: _312  and  _313
REMARK  126  A    between atoms: _313  and  _314
REMARK  127  A    between atoms: _314  and  _315
REMARK  128  A    between atoms: _315  and  _316
REMARK  129  A    between atoms: _320  and  _322
REMARK  130  A    between atoms: _322  and  _323
REMARK  131  A    between atoms: _322  and  _325
REMARK  132  A    between atoms: _325  and  _326
REMARK  133  A    between atoms: _331  and  _332
REMARK  134  A    between atoms: _334  and  _336
REMARK  135  A    between atoms: _336  and  _337
REMARK  136  A    between atoms: _336  and  _339
REMARK  137  A    between atoms: _339  and  _340
REMARK  138  A    between atoms: _340  and  _341
REMARK  139  A    between atoms: _343  and  _345
REMARK  140  A    between atoms: _345  and  _346
REMARK  141  A    between atoms: _345  and  _348
REMARK  142  A    between atoms: _352  and  _353
REMARK  143  A    between atoms: _358  and  _360
REMARK  144  A    between atoms: _360  and  _361
REMARK  145  A    between atoms: _360  and  _363
REMARK  146  A    between atoms: _366  and  _368
REMARK  147  A    between atoms: _368  and  _369
REMARK  148  A    between atoms: _371  and  _373
REMARK  149  A    between atoms: _373  and  _374
REMARK  150  A    between atoms: _373  and  _376
REMARK  151  A    between atoms: _376  and  _377
REMARK  152  A    between atoms: _377  and  _378
REMARK  153  A    between atoms: _381  and  _383
REMARK  154  A    between atoms: _383  and  _384
REMARK  155  A    between atoms: _383  and  _386
REMARK  156  A    between atoms: _386  and  _387
REMARK  157  A    between atoms: _390  and  _392
REMARK  158  A    between atoms: _392  and  _393
REMARK  159  A    between atoms: _392  and  _395
REMARK  160  A    between atoms: _395  and  _396
REMARK  161  A    between atoms: _396  and  _397
REMARK  162  A    between atoms: _402  and  _404
REMARK  163  A    between atoms: _404  and  _405
REMARK  164  A    between atoms: _404  and  _407
REMARK  165  A    between atoms: _407  and  _408
REMARK  166  A    between atoms: _408  and  _409
REMARK  167  A    between atoms: _409  and  _410
REMARK  168  A    between atoms: _410  and  _411
REMARK  169  A    between atoms: _415  and  _417
REMARK  170  A    between atoms: _417  and  _418
REMARK  171  A    between atoms: _417  and  _420
REMARK  172  A    between atoms: _420  and  _421
REMARK  173  A    between atoms: _426  and  _428
REMARK  174  A    between atoms: _428  and  _429
REMARK  175  A    between atoms: _428  and  _431
REMARK  176  A    between atoms: _431  and  _432
REMARK  177  A    between atoms: _435  and  _437
REMARK  178  A    between atoms: _437  and  _438
REMARK  179  A    between atoms: _437  and  _440
REMARK  180  A    between atoms: _440  and  _441
REMARK  181  A    between atoms: _445  and  _446
REMARK  182  A    between atoms: _451  and  _453
REMARK  183  A    between atoms: _453  and  _454
REMARK  184  A    between atoms: _453  and  _456
REMARK  185  A    between atoms: _459  and  _461
REMARK  186  A    between atoms: _461  and  _462
REMARK  187  A    between atoms: _464  and  _466
REMARK  188  A    between atoms: _466  and  _467
REMARK  189  A    between atoms: _470  and  _472
REMARK  190  A    between atoms: _472  and  _473
REMARK  191  A    between atoms: _472  and  _475
REMARK  192  A    between atoms: _475  and  _476
REMARK  193  A    between atoms: _476  and  _477
REMARK  194  A    between atoms: _477  and  _478
REMARK  195  A    between atoms: _487  and  _489
REMARK  196  A    between atoms: _489  and  _490
REMARK  197  A    between atoms: _489  and  _492
REMARK  198  A    between atoms: _492  and  _493
REMARK  199  A    between atoms: _496  and  _498
REMARK  200  A    between atoms: _498  and  _499
REMARK  201  A    between atoms: _498  and  _501
REMARK  202  A    between atoms: _501  and  _502
REMARK  203  A    between atoms: _502  and  _503
REMARK  204  A    between atoms: _505  and  _507
REMARK  205  A    between atoms: _507  and  _508
REMARK  206  A    between atoms: _507  and  _510
REMARK  207  A    between atoms: _510  and  _511
REMARK  208  A    between atoms: _513  and  _515
REMARK  209  A    between atoms: _515  and  _516
REMARK  210  A    between atoms: _515  and  _518
REMARK  211  A    between atoms: _518  and  _519
REMARK  212  A    between atoms: _519  and  _520
REMARK  213  A    between atoms: _520  and  _521
REMARK  214  A    between atoms: _521  and  _522
REMARK  215  A    between atoms: _526  and  _528
REMARK  216  A    between atoms: _528  and  _529
REMARK  217  A    between atoms: _528  and  _531
REMARK  218  A    between atoms: _531  and  _532
REMARK  219  A    between atoms: _532  and  _533
REMARK  220  A    between atoms: _533  and  _534
REMARK  221  A    between atoms: _534  and  _535
REMARK  222  A    between atoms: _539  and  _541
REMARK  223  A    between atoms: _541  and  _542
REMARK  224  A    between atoms: _541  and  _544
REMARK  225  A    between atoms: _544  and  _545
REMARK  226  A    between atoms: _545  and  _546
REMARK  227  A    between atoms: _548  and  _550
REMARK  228  A    between atoms: _550  and  _551
REMARK  229  A    between atoms: _550  and  _553
REMARK  230  A    between atoms: _553  and  _554
REMARK  231  A    between atoms: _556  and  _558
REMARK  232  A    between atoms: _558  and  _559
REMARK  233  A    between atoms: _558  and  _561
REMARK  234  A    between atoms: _561  and  _562
REMARK  235  A    between atoms: _562  and  _563
REMARK  236  A    between atoms: _563  and  _564
REMARK  237  A    between atoms: _564  and  _565
REMARK  238  A    between atoms: _569  and  _571
REMARK  239  A    between atoms: _571  and  _572
REMARK  240  A    between atoms: _571  and  _574
REMARK  241  A    between atoms: _574  and  _575
REMARK  242  A    between atoms: _577  and  _579
REMARK  243  A    between atoms: _579  and  _580
REMARK  244  A    between atoms: _579  and  _582
REMARK  245  A    between atoms: _582  and  _583
REMARK  246  A    between atoms: _587  and  _588
REMARK  247  A    between atoms: _593  and  _595
REMARK  248  A    between atoms: _595  and  _596
REMARK  249  A    between atoms: _595  and  _598
REMARK  250  A    between atoms: _598  and  _599
REMARK  251  A    between atoms: _604  and  _605
REMARK  252  A    between atoms: _607  and  _609
REMARK  253  A    between atoms: _609  and  _610
REMARK  254  A    between atoms: _609  and  _612
REMARK  255  A    between atoms: _612  and  _613
REMARK                            x       y       z     vdW  Elec       q    Type
REMARK                         _______ _______ _______ _____ _____    ______ ____
ROOT
ATOM      1  CA  ARG A   4      52.849  33.396  32.786  0.00  0.00    +0.149 C 
ENDROOT
BRANCH   1   4
ATOM      2  C   ALA A   3      55.027  32.936  33.836  0.00  0.00    +0.241 C 
ATOM      3  O   ALA A   3      54.561  32.012  34.526  0.00  0.00    -0.273 OA
ATOM      4  N   ARG A   4      54.287  33.639  32.971  0.00  0.00    -0.297 N 
ATOM      5  H   ARG A   4      54.746  34.384  32.409  0.00  0.00    +0.150 HD
BRANCH   2   6
ATOM      6  CA  ALA A   3      56.529  33.273  33.892  0.00  0.00    +0.149 C 
ATOM      7  CB  ALA A   3      56.829  34.254  35.029  0.00  0.00    +0.031 C 
BRANCH   6   9
ATOM      8  C   GLY A   2      57.216  33.067  31.543  0.00  0.00    +0.243 C 
ATOM      9  N   ALA A   3      56.989  33.822  32.613  0.00  0.00    -0.297 N 
ATOM     10  H   ALA A   3      57.145  34.848  32.540  0.00  0.00    +0.150 HD
ATOM     11  O   GLY A   2      57.067  31.863  31.533  0.00  0.00    -0.273 OA
BRANCH   8  12
ATOM     12  CA  GLY A   2      57.647  33.777  30.283  0.00  0.00    +0.176 C 
BRANCH  12  15
ATOM     13  C   VAL A   1      59.669  34.943  30.942  0.00  0.00    +0.238 C 
ATOM     14  O   VAL A   1      60.251  33.874  31.211  0.00  0.00    -0.274 OA
ATOM     15  N   GLY A   2      58.410  34.995  30.518  0.00  0.00    -0.296 N 
ATOM     16  H   GLY A   2      57.963  35.919  30.352  0.00  0.00    +0.150 HD
BRANCH  13  17
ATOM     17  CA  VAL A   1      60.382  36.292  31.081  0.00  0.00    +0.145 C 
BRANCH  17  18
ATOM     18  CB  VAL A   1      61.475  36.476  29.962  0.00  0.00    +0.025 C 
ATOM     19  CG2 VAL A   1      61.390  37.864  29.346  0.00  0.00    +0.002 C 
ATOM     20  CG1 VAL A   1      61.431  35.347  28.909  0.00  0.00    +0.002 C 
ENDBRANCH  17  18
BRANCH  17  21
ATOM     21  N   VAL A   1      60.996  36.430  32.373  0.00  0.00    -0.238 NA
ATOM     22  H   VAL A   1      61.567  35.649  32.755  0.00  0.00    +0.142 HD
ENDBRANCH  17  21
ENDBRANCH  13  17
ENDBRANCH  12  15
ENDBRANCH   8  12
ENDBRANCH   6   9
ENDBRANCH   2   6
ENDBRANCH   1   4
BRANCH   1  23
ATOM     23  C   ARG A   4      52.406  33.270  31.341  0.00  0.00    +0.241 C 
ATOM     24  O   ARG A   4      51.709  34.131  30.851  0.00  0.00    -0.273 OA
ATOM     25  N   ILE A   5      52.776  32.191  30.666  0.00  0.00    -0.297 N 
ATOM     26  H   ILE A   5      53.393  31.488  31.121  0.00  0.00    +0.150 HD
BRANCH  25  27
ATOM     27  CA  ILE A   5      52.333  31.977  29.301  0.00  0.00    +0.149 C 
BRANCH  27  28
ATOM     28  C   ILE A   5      50.795  31.791  29.355  0.00  0.00    +0.241 C 
ATOM     29  O   ILE A   5      50.261  31.136  30.255  0.00  0.00    -0.273 OA
ATOM     30  N   MET A   6      50.082  32.482  28.464  0.00  0.00    -0.297 N 
ATOM     31  H   MET A   6      50.581  33.062  27.759  0.00  0.00    +0.150 HD
BRANCH  30  32
ATOM     32  CA  MET A   6      48.625  32.449  28.448  0.00  0.00    +0.149 C 
BRANCH  32  33
ATOM     33  C   MET A   6      48.082  31.416  27.479  0.00  0.00    +0.241 C 
ATOM     34  N   SER A   7      46.840  31.044  27.754  0.00  0.00    -0.296 N 
ATOM     35  H   SER A   7      46.396  31.431  28.611  0.00  0.00    +0.150 HD
ATOM     36  O   MET A   6      48.785  30.931  26.563  0.00  0.00    -0.273 OA
BRANCH  34  37
ATOM     37  CA  SER A   7      46.051  30.124  26.932  0.00  0.00    +0.166 C 
BRANCH  37  38
ATOM     38  C   SER A   7      45.925  30.682  25.503  0.00  0.00    +0.229 C 
ATOM     39  O   SER A   7      45.767  31.891  25.305  0.00  0.00    -0.286 OA
ENDBRANCH  37  38
BRANCH  37  40
ATOM     40  CB  SER A   7      44.647  29.962  27.565  0.00  0.00    +0.165 C 
BRANCH  40  41
ATOM     41  OG  SER A   7      43.659  29.749  26.580  0.00  0.00    -0.380 OA
ATOM     42  H   SER A   7      42.776  29.650  27.016  0.00  0.00    +0.211 HD
ENDBRANCH  40  41
ENDBRANCH  37  40
ENDBRANCH  34  37
ENDBRANCH  32  33
BRANCH  32  43
ATOM     43  CB  MET A   6      48.051  33.841  28.124  0.00  0.00    +0.041 C 
BRANCH  43  44
ATOM     44  CG  MET A   6      48.697  34.977  28.868  0.00  0.00    +0.060 C 
BRANCH  44  45
ATOM     45  SD  MET A   6      48.486  34.748  30.632  0.00  0.00    -0.139 S 
ATOM     46  CE  MET A   6      46.698  35.055  30.862  0.00  0.00    +0.069 C 
ENDBRANCH  44  45
ENDBRANCH  43  44
ENDBRANCH  32  43
ENDBRANCH  30  32
ENDBRANCH  27  28
BRANCH  27  47
ATOM     47  CB  ILE A   5      53.065  30.792  28.648  0.00  0.00    +0.027 C 
ATOM     48  CG2 ILE A   5      52.643  30.564  27.199  0.00  0.00    +0.002 C 
BRANCH  47  49
ATOM     49  CG1 ILE A   5      54.580  31.000  28.732  0.00  0.00    +0.002 C 
ATOM     50  CD1 ILE A   5      55.196  31.589  27.520  0.00  0.00    +0.000 C 
ENDBRANCH  47  49
ENDBRANCH  27  47
ENDBRANCH  25  27
ENDBRANCH   1  23
BRANCH   1  51
ATOM     51  CB  ARG A   4      52.008  34.491  33.456  0.00  0.00    +0.033 C 
BRANCH  51  52
ATOM     52  CG  ARG A   4      50.613  34.023  33.840  0.00  0.00    +0.045 C 
BRANCH  52  53
ATOM     53  CD  ARG A   4      49.979  34.921  34.865  0.00  0.00    +0.174 C 
BRANCH  53  54
ATOM     54  NE  ARG A   4      48.739  35.508  34.357  0.00  0.00    -0.265 N 
ATOM     55  CZ  ARG A   4      47.515  35.099  34.687  0.00  0.00    +0.342 C 
ATOM     56  NH2 ARG A   4      47.344  34.077  35.521  0.00  0.00    -0.292 N 
ATOM     57 HH21 ARG A   4      48.170  33.589  35.922  0.00  0.00    +0.255 HD
ATOM     58 HH22 ARG A   4      46.384  33.766  35.772  0.00  0.00    +0.255 HD
ATOM     59  NH1 ARG A   4      46.457  35.718  34.177  0.00  0.00    -0.292 N 
ATOM     60 HH11 ARG A   4      45.499  35.404  34.430  0.00  0.00    +0.255 HD
ATOM     61 HH12 ARG A   4      46.587  36.517  33.524  0.00  0.00    +0.255 HD
ATOM     62  HE  ARG A   4      48.819  36.302  33.690  0.00  0.00    +0.259 HD
ENDBRANCH  53  54
ENDBRANCH  52  53
ENDBRANCH  51  52
ENDBRANCH   1  51
TORSDOF 26
REMARK  Name = ../refined-set-2016/2ov4/2ov4_pocket.pdb
REMARK  255 active torsions:
REMARK  status: ('A' for Active; 'I' for Inactive)
REMARK    1  A    between atoms: _1  and  _3
REMARK    2  A    between atoms: _3  and  _4
REMARK    3  A    between atoms: _3  and  _6
REMARK    4  A    between atoms: _6  and  _7
REMARK    5  A    between atoms: _13  and  _15
REMARK    6  A    between atoms: _15  and  _16
REMARK    7  A    between atoms: _15  and  _18
REMARK    8  A    between atoms: _18  and  _19
REMARK    9  A    between atoms: _21  and  _23
REMARK   10  A    between atoms: _23  and  _24
REMARK   11  A    between atoms: _26  and  _28
REMARK   12  A    between atoms: _28  and  _29
REMARK   13  A    between atoms: _28  and  _31
REMARK   14  A    between atoms: _31  and  _32
REMARK   15  A    between atoms: _35  and  _37
REMARK   16  A    between atoms: _37  and  _38
REMARK   17  A    between atoms: _37  and  _40
REMARK   18  A    between atoms: _40  and  _41
REMARK   19  A    between atoms: _41  and  _42
REMARK   20  A    between atoms: _48  and  _49
REMARK   21  A    between atoms: _54  and  _56
REMARK   22  A    between atoms: _56  and  _57
REMARK   23  A    between atoms: _56  and  _59
REMARK   24  A    between atoms: _59  and  _60
REMARK   25  A    between atoms: _62  and  _64
REMARK   26  A    between atoms: _64  and  _65
REMARK   27  A    between atoms: _67  and  _69
REMARK   28  A    between atoms: _69  and  _70
REMARK   29  A    between atoms: _69  and  _72
REMARK   30  A    between atoms: _75  and  _77
REMARK   31  A    between atoms: _77  and  _78
REMARK   32  A    between atoms: _77  and  _80
REMARK   33  A    between atoms: _80  and  _81
REMARK   34  A    between atoms: _84  and  _86
REMARK   35  A    between atoms: _86  and  _87
REMARK   36  A    between atoms: _86  and  _89
REMARK   37  A    between atoms: _89  and  _90
REMARK   38  A    between atoms: _93  and  _95
REMARK   39  A    between atoms: _95  and  _96
REMARK   40  A    between atoms: _95  and  _98
REMARK   41  A    between atoms: _98  and  _99
REMARK   42  A    between atoms: _102  and  _104
REMARK   43  A    between atoms: _104  and  _105
REMARK   44  A    between atoms: _107  and  _109
REMARK   45  A    between atoms: _109  and  _110
REMARK   46  A    between atoms: _109  and  _112
REMARK   47  A    between atoms: _112  and  _113
REMARK   48  A    between atoms: _118  and  _120
REMARK   49  A    between atoms: _120  and  _121
REMARK   50  A    between atoms: _120  and  _123
REMARK   51  A    between atoms: _123  and  _124
REMARK   52  A    between atoms: _129  and  _130
REMARK   53  A    between atoms: _132  and  _134
REMARK   54  A    between atoms: _134  and  _135
REMARK   55  A    between atoms: _134  and  _137
REMARK   56  A    between atoms: _137  and  _138
REMARK   57  A    between atoms: _141  and  _143
REMARK   58  A    between atoms: _143  and  _144
REMARK   59  A    between atoms: _146  and  _148
REMARK   60  A    between atoms: _148  and  _149
REMARK   61  A    between atoms: _152  and  _154
REMARK   62  A    between atoms: _154  and  _155
REMARK   63  A    between atoms: _154  and  _157
REMARK   64  A    between atoms: _157  and  _158
REMARK   65  A    between atoms: _161  and  _163
REMARK   66  A    between atoms: _163  and  _164
REMARK   67  A    between atoms: _163  and  _166
REMARK   68  A    between atoms: _166  and  _167
REMARK   69  A    between atoms: _167  and  _168
REMARK   70  A    between atoms: _168  and  _169
REMARK   71  A    between atoms: _178  and  _180
REMARK   72  A    between atoms: _180  and  _181
REMARK   73  A    between atoms: _180  and  _183
REMARK   74  A    between atoms: _183  and  _184
REMARK   75  A    between atoms: _184  and  _185
REMARK   76  A    between atoms: _190  and  _192
REMARK   77  A    between atoms: _192  and  _193
REMARK   78  A    between atoms: _192  and  _195
REMARK   79  A    between atoms: _195  and  _196
REMARK   80  A    between atoms: _202  and  _204
REMARK   81  A    between atoms: _204  and  _205
REMARK   82  A    between atoms: _204  and  _207
REMARK   83  A    between atoms: _209  and  _211
REMARK   84  A    between atoms: _211  and  _212
REMARK   85  A    between atoms: _211  and  _214
REMARK   86  A    between atoms: _214  and  _215
REMARK   87  A    between atoms: _218  and  _220
REMARK   88  A    between atoms: _220  and  _221
REMARK   89  A    between atoms: _220  and  _223
REMARK   90  A    between atoms: _226  and  _228
REMARK   91  A    between atoms: _228  and  _229
REMARK   92  A    between atoms: _228  and  _231
REMARK   93  A    between atoms: _231  and  _232
REMARK   94  A    between atoms: _237  and  _239
REMARK   95  A    between atoms: _239  and  _240
REMARK   96  A    between atoms: _243  and  _245
REMARK   97  A    between atoms: _245  and  _246
REMARK   98  A    between atoms: _245  and  _248
REMARK   99  A    between atoms: _248  and  _249
REMARK  100  A    between atoms: _252  and  _254
REMARK  101  A    between atoms: _254  and  _255
REMARK  102  A    between atoms: _254  and  _257
REMARK  103  A    between atoms: _260  and  _262
REMARK  104  A    between atoms: _262  and  _263
REMARK  105  A    between atoms: _262  and  _265
REMARK  106  A    between atoms: _265  and  _266
REMARK  107  A    between atoms: _266  and  _267
REMARK  108  A    between atoms: _272  and  _274
REMARK  109  A    between atoms: _274  and  _275
REMARK  110  A    between atoms: _274  and  _277
REMARK  111  A    between atoms: _277  and  _278
REMARK  112  A    between atoms: _281  and  _283
REMARK  113  A    between atoms: _283  and  _284
REMARK  114  A    between atoms: _283  and  _286
REMARK  115  A    between atoms: _286  and  _287
REMARK  116  A    between atoms: _292  and  _293
REMARK  117  A    between atoms: _295  and  _297
REMARK  118  A    between atoms: _297  and  _298
REMARK  119  A    between atoms: _297  and  _300
REMARK  120  A    between atoms: _300  and  _301
REMARK  121  A    between atoms: _301  and  _302
REMARK  122  A    between atoms: _307  and  _309
REMARK  123  A    between atoms: _309  and  _310
REMARK  124  A    between atoms: _309  and  _312
REMARK  125  A    between atoms: _312  and  _313
REMARK  126  A    between atoms: _313  and  _314
REMARK  127  A    between atoms: _314  and  _315
REMARK  128  A    between atoms: _315  and  _316
REMARK  129  A    between atoms: _320  and  _322
REMARK  130  A    between atoms: _322  and  _323
REMARK  131  A    between atoms: _322  and  _325
REMARK  132  A    between atoms: _325  and  _326
REMARK  133  A    between atoms: _331  and  _332
REMARK  134  A    between atoms: _334  and  _336
REMARK  135  A    between atoms: _336  and  _337
REMARK  136  A    between atoms: _336  and  _339
REMARK  137  A    between atoms: _339  and  _340
REMARK  138  A    between atoms: _340  and  _341
REMARK  139  A    between atoms: _343  and  _345
REMARK  140  A    between atoms: _345  and  _346
REMARK  141  A    between atoms: _345  and  _348
REMARK  142  A    between atoms: _352  and  _353
REMARK  143  A    between atoms: _358  and  _360
REMARK  144  A    between atoms: _360  and  _361
REMARK  145  A    between atoms: _360  and  _363
REMARK  146  A    between atoms: _366  and  _368
REMARK  147  A    between atoms: _368  and  _369
REMARK  148  A    between atoms: _371  and  _373
REMARK  149  A    between atoms: _373  and  _374
REMARK  150  A    between atoms: _373  and  _376
REMARK  151  A    between atoms: _376  and  _377
REMARK  152  A    between atoms: _377  and  _378
REMARK  153  A    between atoms: _381  and  _383
REMARK  154  A    between atoms: _383  and  _384
REMARK  155  A    between atoms: _383  and  _386
REMARK  156  A    between atoms: _386  and  _387
REMARK  157  A    between atoms: _390  and  _392
REMARK  158  A    between atoms: _392  and  _393
REMARK  159  A    between atoms: _392  and  _395
REMARK  160  A    between atoms: _395  and  _396
REMARK  161  A    between atoms: _396  and  _397
REMARK  162  A    between atoms: _402  and  _404
REMARK  163  A    between atoms: _404  and  _405
REMARK  164  A    between atoms: _404  and  _407
REMARK  165  A    between atoms: _407  and  _408
REMARK  166  A    between atoms: _408  and  _409
REMARK  167  A    between atoms: _409  and  _410
REMARK  168  A    between atoms: _410  and  _411
REMARK  169  A    between atoms: _415  and  _417
REMARK  170  A    between atoms: _417  and  _418
REMARK  171  A    between atoms: _417  and  _420
REMARK  172  A    between atoms: _420  and  _421
REMARK  173  A    between atoms: _426  and  _428
REMARK  174  A    between atoms: _428  and  _429
REMARK  175  A    between atoms: _428  and  _431
REMARK  176  A    between atoms: _431  and  _432
REMARK  177  A    between atoms: _435  and  _437
REMARK  178  A    between atoms: _437  and  _438
REMARK  179  A    between atoms: _437  and  _440
REMARK  180  A    between atoms: _440  and  _441
REMARK  181  A    between atoms: _445  and  _446
REMARK  182  A    between atoms: _451  and  _453
REMARK  183  A    between atoms: _453  and  _454
REMARK  184  A    between atoms: _453  and  _456
REMARK  185  A    between atoms: _459  and  _461
REMARK  186  A    between atoms: _461  and  _462
REMARK  187  A    between atoms: _464  and  _466
REMARK  188  A    between atoms: _466  and  _467
REMARK  189  A    between atoms: _470  and  _472
REMARK  190  A    between atoms: _472  and  _473
REMARK  191  A    between atoms: _472  and  _475
REMARK  192  A    between atoms: _475  and  _476
REMARK  193  A    between atoms: _476  and  _477
REMARK  194  A    between atoms: _477  and  _478
REMARK  195  A    between atoms: _487  and  _489
REMARK  196  A    between atoms: _489  and  _490
REMARK  197  A    between atoms: _489  and  _492
REMARK  198  A    between atoms: _492  and  _493
REMARK  199  A    between atoms: _496  and  _498
REMARK  200  A    between atoms: _498  and  _499
REMARK  201  A    between atoms: _498  and  _501
REMARK  202  A    between atoms: _501  and  _502
REMARK  203  A    between atoms: _502  and  _503
REMARK  204  A    between atoms: _505  and  _507
REMARK  205  A    between atoms: _507  and  _508
REMARK  206  A    between atoms: _507  and  _510
REMARK  207  A    between atoms: _510  and  _511
REMARK  208  A    between atoms: _513  and  _515
REMARK  209  A    between atoms: _515  and  _516
REMARK  210  A    between atoms: _515  and  _518
REMARK  211  A    between atoms: _518  and  _519
REMARK  212  A    between atoms: _519  and  _520
REMARK  213  A    between atoms: _520  and  _521
REMARK  214  A    between atoms: _521  and  _522
REMARK  215  A    between atoms: _526  and  _528
REMARK  216  A    between atoms: _528  and  _529
REMARK  217  A    between atoms: _528  and  _531
REMARK  218  A    between atoms: _531  and  _532
REMARK  219  A    between atoms: _532  and  _533
REMARK  220  A    between atoms: _533  and  _534
REMARK  221  A    between atoms: _534  and  _535
REMARK  222  A    between atoms: _539  and  _541
REMARK  223  A    between atoms: _541  and  _542
REMARK  224  A    between atoms: _541  and  _544
REMARK  225  A    between atoms: _544  and  _545
REMARK  226  A    between atoms: _545  and  _546
REMARK  227  A    between atoms: _548  and  _550
REMARK  228  A    between atoms: _550  and  _551
REMARK  229  A    between atoms: _550  and  _553
REMARK  230  A    between atoms: _553  and  _554
REMARK  231  A    between atoms: _556  and  _558
REMARK  232  A    between atoms: _558  and  _559
REMARK  233  A    between atoms: _558  and  _561
REMARK  234  A    between atoms: _561  and  _562
REMARK  235  A    between atoms: _562  and  _563
REMARK  236  A    between atoms: _563  and  _564
REMARK  237  A    between atoms: _564  and  _565
REMARK  238  A    between atoms: _569  and  _571
REMARK  239  A    between atoms: _571  and  _572
REMARK  240  A    between atoms: _571  and  _574
REMARK  241  A    between atoms: _574  and  _575
REMARK  242  A    between atoms: _577  and  _579
REMARK  243  A    between atoms: _579  and  _580
REMARK  244  A    between atoms: _579  and  _582
REMARK  245  A    between atoms: _582  and  _583
REMARK  246  A    between atoms: _587  and  _588
REMARK  247  A    between atoms: _593  and  _595
REMARK  248  A    between atoms: _595  and  _596
REMARK  249  A    between atoms: _595  and  _598
REMARK  250  A    between atoms: _598  and  _599
REMARK  251  A    between atoms: _604  and  _605
REMARK  252  A    between atoms: _607  and  _609
REMARK  253  A    between atoms: _609  and  _610
REMARK  254  A    between atoms: _609  and  _612
REMARK  255  A    between atoms: _612  and  _613
REMARK                            x       y       z     vdW  Elec       q    Type
REMARK                         _______ _______ _______ _____ _____    ______ ____
ROOT
ATOM      1  CA  SER A   4      47.063  25.280  32.008  0.00  0.00    +0.178 C 
ENDROOT
BRANCH   1   2
ATOM      2  C   SER A   4      46.856  23.947  31.343  0.00  0.00    +0.243 C 
ATOM      3  N   LYS A   5      47.705  22.980  31.699  0.00  0.00    -0.297 N 
ATOM      4  H   LYS A   5      48.383  23.179  32.462  0.00  0.00    +0.150 HD
ATOM      5  O   SER A   4      46.056  23.846  30.423  0.00  0.00    -0.273 OA
BRANCH   3   6
ATOM      6  CA  LYS A   5      47.736  21.651  31.075  0.00  0.00    +0.149 C 
BRANCH   6   7
ATOM      7  C   LYS A   5      46.488  20.779  31.377  0.00  0.00    +0.241 C 
ATOM      8  N   SER A   6      45.616  21.286  32.255  0.00  0.00    -0.295 N 
ATOM      9  H   SER A   6      45.819  22.210  32.688  0.00  0.00    +0.150 HD
ATOM     10  O   LYS A   5      46.320  19.667  30.816  0.00  0.00    -0.273 OA
BRANCH   8  11
ATOM     11  CA  SER A   6      44.377  20.580  32.631  0.00  0.00    +0.178 C 
BRANCH  11  12
ATOM     12  C   SER A   6      43.146  21.320  32.096  0.00  0.00    +0.243 C 
ATOM     13  O   SER A   6      42.013  21.184  32.623  0.00  0.00    -0.273 OA
ATOM     14  N   ASP A   7      43.407  22.197  31.125  0.00  0.00    -0.296 N 
ATOM     15  H   ASP A   7      44.388  22.340  30.811  0.00  0.00    +0.150 HD
BRANCH  14  16
ATOM     16  CA  ASP A   7      42.349  22.946  30.508  0.00  0.00    +0.160 C 
BRANCH  16  17
ATOM     17  C   ASP A   7      41.467  21.950  29.761  0.00  0.00    +0.244 C 
ATOM     18  N   PRO A   8      40.188  22.051  30.049  0.00  0.00    -0.273 N 
ATOM     19  CD  PRO A   8      39.650  22.824  31.188  0.00  0.00    +0.094 C 
ATOM     20  CG  PRO A   8      38.214  22.370  31.240  0.00  0.00    +0.024 C 
ATOM     21  CB  PRO A   8      37.858  21.827  29.885  0.00  0.00    +0.030 C 
ATOM     22  CA  PRO A   8      39.183  21.223  29.383  0.00  0.00    +0.140 C 
ATOM     23  O   ASP A   7      41.927  21.057  29.025  0.00  0.00    -0.273 OA
BRANCH  22  24
ATOM     24  C   PRO A   8      39.321  21.370  27.847  0.00  0.00    +0.227 C 
ATOM     25  O   PRO A   8      39.165  20.407  27.094  0.00  0.00    -0.286 OA
ENDBRANCH  22  24
ENDBRANCH  16  17
BRANCH  16  26
ATOM     26  CB  ASP A   7      42.921  23.975  29.552  0.00  0.00    +0.143 C 
BRANCH  26  27
ATOM     27  CG  ASP A   7      41.938  25.076  29.242  0.00  0.00    +0.367 C 
ATOM     28  OD2 ASP A   7      42.266  26.243  29.497  0.00  0.00    -0.246 OA
ATOM     29  OD1 ASP A   7      40.817  24.776  28.782  0.00  0.00    -0.246 OA
ENDBRANCH  26  27
ENDBRANCH  16  26
ENDBRANCH  14  16
ENDBRANCH  11  12
BRANCH  11  30
ATOM     30  CB  SER A   6      44.273  20.392  34.152  0.00  0.00    +0.166 C 
BRANCH  30  31
ATOM     31  OG  SER A   6      43.845  21.586  34.791  0.00  0.00    -0.380 OA
ATOM     32  H   SER A   6      44.495  22.309  34.606  0.00  0.00    +0.211 HD
ENDBRANCH  30  31
ENDBRANCH  11  30
ENDBRANCH   8  11
ENDBRANCH   6   7
BRANCH   6  33
ATOM     33  CB  LYS A   5      49.019  20.926  31.502  0.00  0.00    +0.029 C 
BRANCH  33  34
ATOM     34  CG  LYS A   5      48.882  20.153  32.828  0.00  0.00    +0.000 C 
BRANCH  34  35
ATOM     35  CD  LYS A   5      49.955  19.069  33.005  0.00  0.00    -0.024 C 
BRANCH  35  36
ATOM     36  CE  LYS A   5      51.049  19.504  33.973  0.00  0.00    -0.086 C 
BRANCH  36  37
ATOM     37  NZ  LYS A   5      50.408  19.816  35.274  0.00  0.00    +0.380 N 
ATOM     38  HZ1 LYS A   5      51.135  20.116  35.954  0.00  0.00    -0.089 HD
ATOM     39  HZ2 LYS A   5      49.925  18.968  35.633  0.00  0.00    -0.089 HD
ATOM     40  HZ3 LYS A   5      49.716  20.582  35.144  0.00  0.00    -0.089 HD
ENDBRANCH  36  37
ENDBRANCH  35  36
ENDBRANCH  34  35
ENDBRANCH  33  34
ENDBRANCH   6  33
ENDBRANCH   3   6
ENDBRANCH   1   2
BRANCH   1  43
ATOM     41  C   MET A   3      48.204  27.077  30.901  0.00  0.00    +0.241 C 
ATOM     42  O   MET A   3      49.145  26.958  31.649  0.00  0.00    -0.273 OA
ATOM     43  N   SER A   4      47.147  26.296  30.983  0.00  0.00    -0.295 N 
ATOM     44  H   SER A   4      46.367  26.411  30.305  0.00  0.00    +0.150 HD
BRANCH  41  45
ATOM     45  CA  MET A   3      48.166  28.175  29.858  0.00  0.00    +0.149 C 
BRANCH  45  48
ATOM     46  C   LYS A   2      47.067  29.824  31.193  0.00  0.00    +0.241 C 
ATOM     47  O   LYS A   2      46.001  29.187  31.123  0.00  0.00    -0.273 OA
ATOM     48  N   MET A   3      48.172  29.429  30.570  0.00  0.00    -0.297 N 
ATOM     49  H   MET A   3      49.030  30.016  30.595  0.00  0.00    +0.150 HD
BRANCH  46  50
ATOM     50  CA  LYS A   2      47.160  31.128  32.009  0.00  0.00    +0.149 C 
BRANCH  50  52
ATOM     51  C   LYS A   1      45.173  32.282  31.169  0.00  0.00    +0.238 C 
ATOM     52  N   LYS A   2      45.835  31.702  32.166  0.00  0.00    -0.297 N 
ATOM     53  H   LYS A   2      45.383  31.657  33.102  0.00  0.00    +0.150 HD
ATOM     54  O   LYS A   1      45.647  32.466  30.037  0.00  0.00    -0.274 OA
BRANCH  51  55
ATOM     55  CA  LYS A   1      43.794  32.780  31.528  0.00  0.00    +0.145 C 
BRANCH  55  56
ATOM     56  N   LYS A   1      43.577  33.969  30.725  0.00  0.00    -0.238 NA
ATOM     57  H   LYS A   1      43.432  33.853  29.702  0.00  0.00    +0.142 HD
ENDBRANCH  55  56
BRANCH  55  58
ATOM     58  CB  LYS A   1      42.742  31.710  31.209  0.00  0.00    +0.026 C 
BRANCH  58  59
ATOM     59  CG  LYS A   1      41.367  31.993  31.800  0.00  0.00    -0.000 C 
BRANCH  59  60
ATOM     60  CD  LYS A   1      40.409  30.803  31.632  0.00  0.00    -0.024 C 
BRANCH  60  61
ATOM     61  CE  LYS A   1      39.062  31.177  30.946  0.00  0.00    -0.086 C 
BRANCH  61  62
ATOM     62  NZ  LYS A   1      38.656  30.220  29.836  0.00  0.00    +0.380 N 
ATOM     63  HZ1 LYS A   1      38.550  29.262  30.227  0.00  0.00    -0.089 HD
ATOM     64  HZ2 LYS A   1      37.752  30.530  29.426  0.00  0.00    -0.089 HD
ATOM     65  HZ3 LYS A   1      39.389  30.215  29.099  0.00  0.00    -0.089 HD
ENDBRANCH  61  62
ENDBRANCH  60  61
ENDBRANCH  59  60
ENDBRANCH  58  59
ENDBRANCH  55  58
ENDBRANCH  51  55
ENDBRANCH  50  52
BRANCH  50  66
ATOM     66  CB  LYS A   2      47.730  30.827  33.400  0.00  0.00    +0.029 C 
BRANCH  66  67
ATOM     67  CG  LYS A   2      49.078  30.102  33.393  0.00  0.00    +0.000 C 
BRANCH  67  68
ATOM     68  CD  LYS A   2      49.336  29.410  34.731  0.00  0.00    -0.024 C 
BRANCH  68  69
ATOM     69  CE  LYS A   2      48.207  28.475  35.131  0.00  0.00    -0.086 C 
BRANCH  69  70
ATOM     70  NZ  LYS A   2      48.686  27.080  35.333  0.00  0.00    +0.380 N 
ATOM     71  HZ1 LYS A   2      49.403  27.067  36.086  0.00  0.00    -0.089 HD
ATOM     72  HZ2 LYS A   2      47.885  26.475  35.605  0.00  0.00    -0.089 HD
ATOM     73  HZ3 LYS A   2      49.104  26.727  34.449  0.00  0.00    -0.089 HD
ENDBRANCH  69  70
ENDBRANCH  68  69
ENDBRANCH  67  68
ENDBRANCH  66  67
ENDBRANCH  50  66
ENDBRANCH  46  50
ENDBRANCH  45  48
BRANCH  45  74
ATOM     74  CB  MET A   3      49.346  28.049  28.911  0.00  0.00    +0.041 C 
BRANCH  74  75
ATOM     75  CG  MET A   3      49.120  26.964  27.904  0.00  0.00    +0.060 C 
BRANCH  75  76
ATOM     76  SD  MET A   3      50.518  26.682  26.858  0.00  0.00    -0.139 S 
ATOM     77  CE  MET A   3      50.037  27.524  25.258  0.00  0.00    +0.069 C 
ENDBRANCH  75  76
ENDBRANCH  74  75
ENDBRANCH  45  74
ENDBRANCH  41  45
ENDBRANCH   1  43
BRANCH   1  78
ATOM     78  CB  SER A   4      45.954  25.623  32.985  0.00  0.00    +0.166 C 
BRANCH  78  79
ATOM     79  OG  SER A   4      45.702  24.500  33.773  0.00  0.00    -0.380 OA
ATOM     80  H   SER A   4      46.524  24.252  34.265  0.00  0.00    +0.211 HD
ENDBRANCH  78  79
ENDBRANCH   1  78
TORSDOF 39
REMARK  Name = ../refined-set-2016/2ov4/2ov4_pocket.pdb
REMARK  255 active torsions:
REMARK  status: ('A' for Active; 'I' for Inactive)
REMARK    1  A    between atoms: _1  and  _3
REMARK    2  A    between atoms: _3  and  _4
REMARK    3  A    between atoms: _3  and  _6
REMARK    4  A    between atoms: _6  and  _7
REMARK    5  A    between atoms: _13  and  _15
REMARK    6  A    between atoms: _15  and  _16
REMARK    7  A    between atoms: _15  and  _18
REMARK    8  A    between atoms: _18  and  _19
REMARK    9  A    between atoms: _21  and  _23
REMARK   10  A    between atoms: _23  and  _24
REMARK   11  A    between atoms: _26  and  _28
REMARK   12  A    between atoms: _28  and  _29
REMARK   13  A    between atoms: _28  and  _31
REMARK   14  A    between atoms: _31  and  _32
REMARK   15  A    between atoms: _35  and  _37
REMARK   16  A    between atoms: _37  and  _38
REMARK   17  A    between atoms: _37  and  _40
REMARK   18  A    between atoms: _40  and  _41
REMARK   19  A    between atoms: _41  and  _42
REMARK   20  A    between atoms: _48  and  _49
REMARK   21  A    between atoms: _54  and  _56
REMARK   22  A    between atoms: _56  and  _57
REMARK   23  A    between atoms: _56  and  _59
REMARK   24  A    between atoms: _59  and  _60
REMARK   25  A    between atoms: _62  and  _64
REMARK   26  A    between atoms: _64  and  _65
REMARK   27  A    between atoms: _67  and  _69
REMARK   28  A    between atoms: _69  and  _70
REMARK   29  A    between atoms: _69  and  _72
REMARK   30  A    between atoms: _75  and  _77
REMARK   31  A    between atoms: _77  and  _78
REMARK   32  A    between atoms: _77  and  _80
REMARK   33  A    between atoms: _80  and  _81
REMARK   34  A    between atoms: _84  and  _86
REMARK   35  A    between atoms: _86  and  _87
REMARK   36  A    between atoms: _86  and  _89
REMARK   37  A    between atoms: _89  and  _90
REMARK   38  A    between atoms: _93  and  _95
REMARK   39  A    between atoms: _95  and  _96
REMARK   40  A    between atoms: _95  and  _98
REMARK   41  A    between atoms: _98  and  _99
REMARK   42  A    between atoms: _102  and  _104
REMARK   43  A    between atoms: _104  and  _105
REMARK   44  A    between atoms: _107  and  _109
REMARK   45  A    between atoms: _109  and  _110
REMARK   46  A    between atoms: _109  and  _112
REMARK   47  A    between atoms: _112  and  _113
REMARK   48  A    between atoms: _118  and  _120
REMARK   49  A    between atoms: _120  and  _121
REMARK   50  A    between atoms: _120  and  _123
REMARK   51  A    between atoms: _123  and  _124
REMARK   52  A    between atoms: _129  and  _130
REMARK   53  A    between atoms: _132  and  _134
REMARK   54  A    between atoms: _134  and  _135
REMARK   55  A    between atoms: _134  and  _137
REMARK   56  A    between atoms: _137  and  _138
REMARK   57  A    between atoms: _141  and  _143
REMARK   58  A    between atoms: _143  and  _144
REMARK   59  A    between atoms: _146  and  _148
REMARK   60  A    between atoms: _148  and  _149
REMARK   61  A    between atoms: _152  and  _154
REMARK   62  A    between atoms: _154  and  _155
REMARK   63  A    between atoms: _154  and  _157
REMARK   64  A    between atoms: _157  and  _158
REMARK   65  A    between atoms: _161  and  _163
REMARK   66  A    between atoms: _163  and  _164
REMARK   67  A    between atoms: _163  and  _166
REMARK   68  A    between atoms: _166  and  _167
REMARK   69  A    between atoms: _167  and  _168
REMARK   70  A    between atoms: _168  and  _169
REMARK   71  A    between atoms: _178  and  _180
REMARK   72  A    between atoms: _180  and  _181
REMARK   73  A    between atoms: _180  and  _183
REMARK   74  A    between atoms: _183  and  _184
REMARK   75  A    between atoms: _184  and  _185
REMARK   76  A    between atoms: _190  and  _192
REMARK   77  A    between atoms: _192  and  _193
REMARK   78  A    between atoms: _192  and  _195
REMARK   79  A    between atoms: _195  and  _196
REMARK   80  A    between atoms: _202  and  _204
REMARK   81  A    between atoms: _204  and  _205
REMARK   82  A    between atoms: _204  and  _207
REMARK   83  A    between atoms: _209  and  _211
REMARK   84  A    between atoms: _211  and  _212
REMARK   85  A    between atoms: _211  and  _214
REMARK   86  A    between atoms: _214  and  _215
REMARK   87  A    between atoms: _218  and  _220
REMARK   88  A    between atoms: _220  and  _221
REMARK   89  A    between atoms: _220  and  _223
REMARK   90  A    between atoms: _226  and  _228
REMARK   91  A    between atoms: _228  and  _229
REMARK   92  A    between atoms: _228  and  _231
REMARK   93  A    between atoms: _231  and  _232
REMARK   94  A    between atoms: _237  and  _239
REMARK   95  A    between atoms: _239  and  _240
REMARK   96  A    between atoms: _243  and  _245
REMARK   97  A    between atoms: _245  and  _246
REMARK   98  A    between atoms: _245  and  _248
REMARK   99  A    between atoms: _248  and  _249
REMARK  100  A    between atoms: _252  and  _254
REMARK  101  A    between atoms: _254  and  _255
REMARK  102  A    between atoms: _254  and  _257
REMARK  103  A    between atoms: _260  and  _262
REMARK  104  A    between atoms: _262  and  _263
REMARK  105  A    between atoms: _262  and  _265
REMARK  106  A    between atoms: _265  and  _266
REMARK  107  A    between atoms: _266  and  _267
REMARK  108  A    between atoms: _272  and  _274
REMARK  109  A    between atoms: _274  and  _275
REMARK  110  A    between atoms: _274  and  _277
REMARK  111  A    between atoms: _277  and  _278
REMARK  112  A    between atoms: _281  and  _283
REMARK  113  A    between atoms: _283  and  _284
REMARK  114  A    between atoms: _283  and  _286
REMARK  115  A    between atoms: _286  and  _287
REMARK  116  A    between atoms: _292  and  _293
REMARK  117  A    between atoms: _295  and  _297
REMARK  118  A    between atoms: _297  and  _298
REMARK  119  A    between atoms: _297  and  _300
REMARK  120  A    between atoms: _300  and  _301
REMARK  121  A    between atoms: _301  and  _302
REMARK  122  A    between atoms: _307  and  _309
REMARK  123  A    between atoms: _309  and  _310
REMARK  124  A    between atoms: _309  and  _312
REMARK  125  A    between atoms: _312  and  _313
REMARK  126  A    between atoms: _313  and  _314
REMARK  127  A    between atoms: _314  and  _315
REMARK  128  A    between atoms: _315  and  _316
REMARK  129  A    between atoms: _320  and  _322
REMARK  130  A    between atoms: _322  and  _323
REMARK  131  A    between atoms: _322  and  _325
REMARK  132  A    between atoms: _325  and  _326
REMARK  133  A    between atoms: _331  and  _332
REMARK  134  A    between atoms: _334  and  _336
REMARK  135  A    between atoms: _336  and  _337
REMARK  136  A    between atoms: _336  and  _339
REMARK  137  A    between atoms: _339  and  _340
REMARK  138  A    between atoms: _340  and  _341
REMARK  139  A    between atoms: _343  and  _345
REMARK  140  A    between atoms: _345  and  _346
REMARK  141  A    between atoms: _345  and  _348
REMARK  142  A    between atoms: _352  and  _353
REMARK  143  A    between atoms: _358  and  _360
REMARK  144  A    between atoms: _360  and  _361
REMARK  145  A    between atoms: _360  and  _363
REMARK  146  A    between atoms: _366  and  _368
REMARK  147  A    between atoms: _368  and  _369
REMARK  148  A    between atoms: _371  and  _373
REMARK  149  A    between atoms: _373  and  _374
REMARK  150  A    between atoms: _373  and  _376
REMARK  151  A    between atoms: _376  and  _377
REMARK  152  A    between atoms: _377  and  _378
REMARK  153  A    between atoms: _381  and  _383
REMARK  154  A    between atoms: _383  and  _384
REMARK  155  A    between atoms: _383  and  _386
REMARK  156  A    between atoms: _386  and  _387
REMARK  157  A    between atoms: _390  and  _392
REMARK  158  A    between atoms: _392  and  _393
REMARK  159  A    between atoms: _392  and  _395
REMARK  160  A    between atoms: _395  and  _396
REMARK  161  A    between atoms: _396  and  _397
REMARK  162  A    between atoms: _402  and  _404
REMARK  163  A    between atoms: _404  and  _405
REMARK  164  A    between atoms: _404  and  _407
REMARK  165  A    between atoms: _407  and  _408
REMARK  166  A    between atoms: _408  and  _409
REMARK  167  A    between atoms: _409  and  _410
REMARK  168  A    between atoms: _410  and  _411
REMARK  169  A    between atoms: _415  and  _417
REMARK  170  A    between atoms: _417  and  _418
REMARK  171  A    between atoms: _417  and  _420
REMARK  172  A    between atoms: _420  and  _421
REMARK  173  A    between atoms: _426  and  _428
REMARK  174  A    between atoms: _428  and  _429
REMARK  175  A    between atoms: _428  and  _431
REMARK  176  A    between atoms: _431  and  _432
REMARK  177  A    between atoms: _435  and  _437
REMARK  178  A    between atoms: _437  and  _438
REMARK  179  A    between atoms: _437  and  _440
REMARK  180  A    between atoms: _440  and  _441
REMARK  181  A    between atoms: _445  and  _446
REMARK  182  A    between atoms: _451  and  _453
REMARK  183  A    between atoms: _453  and  _454
REMARK  184  A    between atoms: _453  and  _456
REMARK  185  A    between atoms: _459  and  _461
REMARK  186  A    between atoms: _461  and  _462
REMARK  187  A    between atoms: _464  and  _466
REMARK  188  A    between atoms: _466  and  _467
REMARK  189  A    between atoms: _470  and  _472
REMARK  190  A    between atoms: _472  and  _473
REMARK  191  A    between atoms: _472  and  _475
REMARK  192  A    between atoms: _475  and  _476
REMARK  193  A    between atoms: _476  and  _477
REMARK  194  A    between atoms: _477  and  _478
REMARK  195  A    between atoms: _487  and  _489
REMARK  196  A    between atoms: _489  and  _490
REMARK  197  A    between atoms: _489  and  _492
REMARK  198  A    between atoms: _492  and  _493
REMARK  199  A    between atoms: _496  and  _498
REMARK  200  A    between atoms: _498  and  _499
REMARK  201  A    between atoms: _498  and  _501
REMARK  202  A    between atoms: _501  and  _502
REMARK  203  A    between atoms: _502  and  _503
REMARK  204  A    between atoms: _505  and  _507
REMARK  205  A    between atoms: _507  and  _508
REMARK  206  A    between atoms: _507  and  _510
REMARK  207  A    between atoms: _510  and  _511
REMARK  208  A    between atoms: _513  and  _515
REMARK  209  A    between atoms: _515  and  _516
REMARK  210  A    between atoms: _515  and  _518
REMARK  211  A    between atoms: _518  and  _519
REMARK  212  A    between atoms: _519  and  _520
REMARK  213  A    between atoms: _520  and  _521
REMARK  214  A    between atoms: _521  and  _522
REMARK  215  A    between atoms: _526  and  _528
REMARK  216  A    between atoms: _528  and  _529
REMARK  217  A    between atoms: _528  and  _531
REMARK  218  A    between atoms: _531  and  _532
REMARK  219  A    between atoms: _532  and  _533
REMARK  220  A    between atoms: _533  and  _534
REMARK  221  A    between atoms: _534  and  _535
REMARK  222  A    between atoms: _539  and  _541
REMARK  223  A    between atoms: _541  and  _542
REMARK  224  A    between atoms: _541  and  _544
REMARK  225  A    between atoms: _544  and  _545
REMARK  226  A    between atoms: _545  and  _546
REMARK  227  A    between atoms: _548  and  _550
REMARK  228  A    between atoms: _550  and  _551
REMARK  229  A    between atoms: _550  and  _553
REMARK  230  A    between atoms: _553  and  _554
REMARK  231  A    between atoms: _556  and  _558
REMARK  232  A    between atoms: _558  and  _559
REMARK  233  A    between atoms: _558  and  _561
REMARK  234  A    between atoms: _561  and  _562
REMARK  235  A    between atoms: _562  and  _563
REMARK  236  A    between atoms: _563  and  _564
REMARK  237  A    between atoms: _564  and  _565
REMARK  238  A    between atoms: _569  and  _571
REMARK  239  A    between atoms: _571  and  _572
REMARK  240  A    between atoms: _571  and  _574
REMARK  241  A    between atoms: _574  and  _575
REMARK  242  A    between atoms: _577  and  _579
REMARK  243  A    between atoms: _579  and  _580
REMARK  244  A    between atoms: _579  and  _582
REMARK  245  A    between atoms: _582  and  _583
REMARK  246  A    between atoms: _587  and  _588
REMARK  247  A    between atoms: _593  and  _595
REMARK  248  A    between atoms: _595  and  _596
REMARK  249  A    between atoms: _595  and  _598
REMARK  250  A    between atoms: _598  and  _599
REMARK  251  A    between atoms: _604  and  _605
REMARK  252  A    between atoms: _607  and  _609
REMARK  253  A    between atoms: _609  and  _610
REMARK  254  A    between atoms: _609  and  _612
REMARK  255  A    between atoms: _612  and  _613
REMARK                            x       y       z     vdW  Elec       q    Type
REMARK                         _______ _______ _______ _____ _____    ______ ____
ROOT
ATOM      1  CG  TYR A   1      47.049  22.631  26.648  0.00  0.00    -0.020 A 
ATOM      2  CD2 TYR A   1      45.842  22.539  27.316  0.00  0.00    -0.001 A 
ATOM      3  CE2 TYR A   1      45.099  21.371  27.306  0.00  0.00    +0.036 A 
ATOM      4  CZ  TYR A   1      45.530  20.274  26.584  0.00  0.00    +0.134 A 
ATOM      5  CE1 TYR A   1      46.721  20.343  25.897  0.00  0.00    +0.036 A 
ATOM      6  CD1 TYR A   1      47.476  21.521  25.932  0.00  0.00    -0.001 A 
ENDROOT
BRANCH   4   7
ATOM      7  OH  TYR A   1      44.820  19.060  26.586  0.00  0.00    -0.506 OA
ATOM      8  HH  TYR A   1      45.289  18.404  26.012  0.00  0.00    +0.292 HD
ENDBRANCH   4   7
BRANCH   1   9
ATOM      9  CB  TYR A   1      47.838  23.927  26.615  0.00  0.00    +0.051 C 
BRANCH   9  10
ATOM     10  CA  TYR A   1      47.716  24.737  25.276  0.00  0.00    +0.137 C 
BRANCH  10  11
ATOM     11  N   TYR A   1      46.320  24.993  25.008  0.00  0.00    -0.239 NA
ATOM     12  H   TYR A   1      45.731  24.237  24.605  0.00  0.00    +0.142 HD
ENDBRANCH  10  11
BRANCH  10  13
ATOM     13  C   TYR A   1      48.293  23.925  24.165  0.00  0.00    +0.224 C 
ATOM     14  O   TYR A   1      47.558  23.291  23.401  0.00  0.00    -0.287 OA
ENDBRANCH  10  13
ENDBRANCH   9  10
ENDBRANCH   1   9
TORSDOF 5
REMARK  Name = ../refined-set-2016/2ov4/2ov4_pocket.pdb
REMARK  255 active torsions:
REMARK  status: ('A' for Active; 'I' for Inactive)
REMARK    1  A    between atoms: _1  and  _3
REMARK    2  A    between atoms: _3  and  _4
REMARK    3  A    between atoms: _3  and  _6
REMARK    4  A    between atoms: _6  and  _7
REMARK    5  A    between atoms: _13  and  _15
REMARK    6  A    between atoms: _15  and  _16
REMARK    7  A    between atoms: _15  and  _18
REMARK    8  A    between atoms: _18  and  _19
REMARK    9  A    between atoms: _21  and  _23
REMARK   10  A    between atoms: _23  and  _24
REMARK   11  A    between atoms: _26  and  _28
REMARK   12  A    between atoms: _28  and  _29
REMARK   13  A    between atoms: _28  and  _31
REMARK   14  A    between atoms: _31  and  _32
REMARK   15  A    between atoms: _35  and  _37
REMARK   16  A    between atoms: _37  and  _38
REMARK   17  A    between atoms: _37  and  _40
REMARK   18  A    between atoms: _40  and  _41
REMARK   19  A    between atoms: _41  and  _42
REMARK   20  A    between atoms: _48  and  _49
REMARK   21  A    between atoms: _54  and  _56
REMARK   22  A    between atoms: _56  and  _57
REMARK   23  A    between atoms: _56  and  _59
REMARK   24  A    between atoms: _59  and  _60
REMARK   25  A    between atoms: _62  and  _64
REMARK   26  A    between atoms: _64  and  _65
REMARK   27  A    between atoms: _67  and  _69
REMARK   28  A    between atoms: _69  and  _70
REMARK   29  A    between atoms: _69  and  _72
REMARK   30  A    between atoms: _75  and  _77
REMARK   31  A    between atoms: _77  and  _78
REMARK   32  A    between atoms: _77  and  _80
REMARK   33  A    between atoms: _80  and  _81
REMARK   34  A    between atoms: _84  and  _86
REMARK   35  A    between atoms: _86  and  _87
REMARK   36  A    between atoms: _86  and  _89
REMARK   37  A    between atoms: _89  and  _90
REMARK   38  A    between atoms: _93  and  _95
REMARK   39  A    between atoms: _95  and  _96
REMARK   40  A    between atoms: _95  and  _98
REMARK   41  A    between atoms: _98  and  _99
REMARK   42  A    between atoms: _102  and  _104
REMARK   43  A    between atoms: _104  and  _105
REMARK   44  A    between atoms: _107  and  _109
REMARK   45  A    between atoms: _109  and  _110
REMARK   46  A    between atoms: _109  and  _112
REMARK   47  A    between atoms: _112  and  _113
REMARK   48  A    between atoms: _118  and  _120
REMARK   49  A    between atoms: _120  and  _121
REMARK   50  A    between atoms: _120  and  _123
REMARK   51  A    between atoms: _123  and  _124
REMARK   52  A    between atoms: _129  and  _130
REMARK   53  A    between atoms: _132  and  _134
REMARK   54  A    between atoms: _134  and  _135
REMARK   55  A    between atoms: _134  and  _137
REMARK   56  A    between atoms: _137  and  _138
REMARK   57  A    between atoms: _141  and  _143
REMARK   58  A    between atoms: _143  and  _144
REMARK   59  A    between atoms: _146  and  _148
REMARK   60  A    between atoms: _148  and  _149
REMARK   61  A    between atoms: _152  and  _154
REMARK   62  A    between atoms: _154  and  _155
REMARK   63  A    between atoms: _154  and  _157
REMARK   64  A    between atoms: _157  and  _158
REMARK   65  A    between atoms: _161  and  _163
REMARK   66  A    between atoms: _163  and  _164
REMARK   67  A    between atoms: _163  and  _166
REMARK   68  A    between atoms: _166  and  _167
REMARK   69  A    between atoms: _167  and  _168
REMARK   70  A    between atoms: _168  and  _169
REMARK   71  A    between atoms: _178  and  _180
REMARK   72  A    between atoms: _180  and  _181
REMARK   73  A    between atoms: _180  and  _183
REMARK   74  A    between atoms: _183  and  _184
REMARK   75  A    between atoms: _184  and  _185
REMARK   76  A    between atoms: _190  and  _192
REMARK   77  A    between atoms: _192  and  _193
REMARK   78  A    between atoms: _192  and  _195
REMARK   79  A    between atoms: _195  and  _196
REMARK   80  A    between atoms: _202  and  _204
REMARK   81  A    between atoms: _204  and  _205
REMARK   82  A    between atoms: _204  and  _207
REMARK   83  A    between atoms: _209  and  _211
REMARK   84  A    between atoms: _211  and  _212
REMARK   85  A    between atoms: _211  and  _214
REMARK   86  A    between atoms: _214  and  _215
REMARK   87  A    between atoms: _218  and  _220
REMARK   88  A    between atoms: _220  and  _221
REMARK   89  A    between atoms: _220  and  _223
REMARK   90  A    between atoms: _226  and  _228
REMARK   91  A    between atoms: _228  and  _229
REMARK   92  A    between atoms: _228  and  _231
REMARK   93  A    between atoms: _231  and  _232
REMARK   94  A    between atoms: _237  and  _239
REMARK   95  A    between atoms: _239  and  _240
REMARK   96  A    between atoms: _243  and  _245
REMARK   97  A    between atoms: _245  and  _246
REMARK   98  A    between atoms: _245  and  _248
REMARK   99  A    between atoms: _248  and  _249
REMARK  100  A    between atoms: _252  and  _254
REMARK  101  A    between atoms: _254  and  _255
REMARK  102  A    between atoms: _254  and  _257
REMARK  103  A    between atoms: _260  and  _262
REMARK  104  A    between atoms: _262  and  _263
REMARK  105  A    between atoms: _262  and  _265
REMARK  106  A    between atoms: _265  and  _266
REMARK  107  A    between atoms: _266  and  _267
REMARK  108  A    between atoms: _272  and  _274
REMARK  109  A    between atoms: _274  and  _275
REMARK  110  A    between atoms: _274  and  _277
REMARK  111  A    between atoms: _277  and  _278
REMARK  112  A    between atoms: _281  and  _283
REMARK  113  A    between atoms: _283  and  _284
REMARK  114  A    between atoms: _283  and  _286
REMARK  115  A    between atoms: _286  and  _287
REMARK  116  A    between atoms: _292  and  _293
REMARK  117  A    between atoms: _295  and  _297
REMARK  118  A    between atoms: _297  and  _298
REMARK  119  A    between atoms: _297  and  _300
REMARK  120  A    between atoms: _300  and  _301
REMARK  121  A    between atoms: _301  and  _302
REMARK  122  A    between atoms: _307  and  _309
REMARK  123  A    between atoms: _309  and  _310
REMARK  124  A    between atoms: _309  and  _312
REMARK  125  A    between atoms: _312  and  _313
REMARK  126  A    between atoms: _313  and  _314
REMARK  127  A    between atoms: _314  and  _315
REMARK  128  A    between atoms: _315  and  _316
REMARK  129  A    between atoms: _320  and  _322
REMARK  130  A    between atoms: _322  and  _323
REMARK  131  A    between atoms: _322  and  _325
REMARK  132  A    between atoms: _325  and  _326
REMARK  133  A    between atoms: _331  and  _332
REMARK  134  A    between atoms: _334  and  _336
REMARK  135  A    between atoms: _336  and  _337
REMARK  136  A    between atoms: _336  and  _339
REMARK  137  A    between atoms: _339  and  _340
REMARK  138  A    between atoms: _340  and  _341
REMARK  139  A    between atoms: _343  and  _345
REMARK  140  A    between atoms: _345  and  _346
REMARK  141  A    between atoms: _345  and  _348
REMARK  142  A    between atoms: _352  and  _353
REMARK  143  A    between atoms: _358  and  _360
REMARK  144  A    between atoms: _360  and  _361
REMARK  145  A    between atoms: _360  and  _363
REMARK  146  A    between atoms: _366  and  _368
REMARK  147  A    between atoms: _368  and  _369
REMARK  148  A    between atoms: _371  and  _373
REMARK  149  A    between atoms: _373  and  _374
REMARK  150  A    between atoms: _373  and  _376
REMARK  151  A    between atoms: _376  and  _377
REMARK  152  A    between atoms: _377  and  _378
REMARK  153  A    between atoms: _381  and  _383
REMARK  154  A    between atoms: _383  and  _384
REMARK  155  A    between atoms: _383  and  _386
REMARK  156  A    between atoms: _386  and  _387
REMARK  157  A    between atoms: _390  and  _392
REMARK  158  A    between atoms: _392  and  _393
REMARK  159  A    between atoms: _392  and  _395
REMARK  160  A    between atoms: _395  and  _396
REMARK  161  A    between atoms: _396  and  _397
REMARK  162  A    between atoms: _402  and  _404
REMARK  163  A    between atoms: _404  and  _405
REMARK  164  A    between atoms: _404  and  _407
REMARK  165  A    between atoms: _407  and  _408
REMARK  166  A    between atoms: _408  and  _409
REMARK  167  A    between atoms: _409  and  _410
REMARK  168  A    between atoms: _410  and  _411
REMARK  169  A    between atoms: _415  and  _417
REMARK  170  A    between atoms: _417  and  _418
REMARK  171  A    between atoms: _417  and  _420
REMARK  172  A    between atoms: _420  and  _421
REMARK  173  A    between atoms: _426  and  _428
REMARK  174  A    between atoms: _428  and  _429
REMARK  175  A    between atoms: _428  and  _431
REMARK  176  A    between atoms: _431  and  _432
REMARK  177  A    between atoms: _435  and  _437
REMARK  178  A    between atoms: _437  and  _438
REMARK  179  A    between atoms: _437  and  _440
REMARK  180  A    between atoms: _440  and  _441
REMARK  181  A    between atoms: _445  and  _446
REMARK  182  A    between atoms: _451  and  _453
REMARK  183  A    between atoms: _453  and  _454
REMARK  184  A    between atoms: _453  and  _456
REMARK  185  A    between atoms: _459  and  _461
REMARK  186  A    between atoms: _461  and  _462
REMARK  187  A    between atoms: _464  and  _466
REMARK  188  A    between atoms: _466  and  _467
REMARK  189  A    between atoms: _470  and  _472
REMARK  190  A    between atoms: _472  and  _473
REMARK  191  A    between atoms: _472  and  _475
REMARK  192  A    between atoms: _475  and  _476
REMARK  193  A    between atoms: _476  and  _477
REMARK  194  A    between atoms: _477  and  _478
REMARK  195  A    between atoms: _487  and  _489
REMARK  196  A    between atoms: _489  and  _490
REMARK  197  A    between atoms: _489  and  _492
REMARK  198  A    between atoms: _492  and  _493
REMARK  199  A    between atoms: _496  and  _498
REMARK  200  A    between atoms: _498  and  _499
REMARK  201  A    between atoms: _498  and  _501
REMARK  202  A    between atoms: _501  and  _502
REMARK  203  A    between atoms: _502  and  _503
REMARK  204  A    between atoms: _505  and  _507
REMARK  205  A    between atoms: _507  and  _508
REMARK  206  A    between atoms: _507  and  _510
REMARK  207  A    between atoms: _510  and  _511
REMARK  208  A    between atoms: _513  and  _515
REMARK  209  A    between atoms: _515  and  _516
REMARK  210  A    between atoms: _515  and  _518
REMARK  211  A    between atoms: _518  and  _519
REMARK  212  A    between atoms: _519  and  _520
REMARK  213  A    between atoms: _520  and  _521
REMARK  214  A    between atoms: _521  and  _522
REMARK  215  A    between atoms: _526  and  _528
REMARK  216  A    between atoms: _528  and  _529
REMARK  217  A    between atoms: _528  and  _531
REMARK  218  A    between atoms: _531  and  _532
REMARK  219  A    between atoms: _532  and  _533
REMARK  220  A    between atoms: _533  and  _534
REMARK  221  A    between atoms: _534  and  _535
REMARK  222  A    between atoms: _539  and  _541
REMARK  223  A    between atoms: _541  and  _542
REMARK  224  A    between atoms: _541  and  _544
REMARK  225  A    between atoms: _544  and  _545
REMARK  226  A    between atoms: _545  and  _546
REMARK  227  A    between atoms: _548  and  _550
REMARK  228  A    between atoms: _550  and  _551
REMARK  229  A    between atoms: _550  and  _553
REMARK  230  A    between atoms: _553  and  _554
REMARK  231  A    between atoms: _556  and  _558
REMARK  232  A    between atoms: _558  and  _559
REMARK  233  A    between atoms: _558  and  _561
REMARK  234  A    between atoms: _561  and  _562
REMARK  235  A    between atoms: _562  and  _563
REMARK  236  A    between atoms: _563  and  _564
REMARK  237  A    between atoms: _564  and  _565
REMARK  238  A    between atoms: _569  and  _571
REMARK  239  A    between atoms: _571  and  _572
REMARK  240  A    between atoms: _571  and  _574
REMARK  241  A    between atoms: _574  and  _575
REMARK  242  A    between atoms: _577  and  _579
REMARK  243  A    between atoms: _579  and  _580
REMARK  244  A    between atoms: _579  and  _582
REMARK  245  A    between atoms: _582  and  _583
REMARK  246  A    between atoms: _587  and  _588
REMARK  247  A    between atoms: _593  and  _595
REMARK  248  A    between atoms: _595  and  _596
REMARK  249  A    between atoms: _595  and  _598
REMARK  250  A    between atoms: _598  and  _599
REMARK  251  A    between atoms: _604  and  _605
REMARK  252  A    between atoms: _607  and  _609
REMARK  253  A    between atoms: _609  and  _610
REMARK  254  A    between atoms: _609  and  _612
REMARK  255  A    between atoms: _612  and  _613
REMARK                            x       y       z     vdW  Elec       q    Type
REMARK                         _______ _______ _______ _____ _____    ______ ____
ROOT
ATOM      1  CB  ASN A   1      50.155  35.373  24.617  0.00  0.00    +0.110 C 
ENDROOT
BRANCH   1   2
ATOM      2  CG  ASN A   1      50.476  34.203  25.523  0.00  0.00    +0.221 C 
ATOM      3  OD1 ASN A   1      51.509  34.181  26.196  0.00  0.00    -0.275 OA
ATOM      4  ND2 ASN A   1      49.597  33.216  25.537  0.00  0.00    -0.329 N 
ATOM      5 HD21 ASN A   1      49.764  32.379  26.132  0.00  0.00    +0.145 HD
ATOM      6 HD22 ASN A   1      48.738  33.276  24.953  0.00  0.00    +0.145 HD
ENDBRANCH   1   2
BRANCH   1   7
ATOM      7  CA  ASN A   1      51.398  36.151  24.193  0.00  0.00    +0.142 C 
BRANCH   7   8
ATOM      8  N   ASN A   1      51.044  37.498  23.742  0.00  0.00    -0.239 NA
ATOM      9  H   ASN A   1      50.054  37.806  23.819  0.00  0.00    +0.142 HD
ENDBRANCH   7   8
BRANCH   7  10
ATOM     10  C   ASN A   1      52.167  35.365  23.153  0.00  0.00    +0.225 C 
ATOM     11  O   ASN A   1      53.170  34.745  23.462  0.00  0.00    -0.287 OA
ENDBRANCH   7  10
ENDBRANCH   1   7
TORSDOF 4
REMARK  Name = ../refined-set-2016/2ov4/2ov4_pocket.pdb
REMARK  255 active torsions:
REMARK  status: ('A' for Active; 'I' for Inactive)
REMARK    1  A    between atoms: _1  and  _3
REMARK    2  A    between atoms: _3  and  _4
REMARK    3  A    between atoms: _3  and  _6
REMARK    4  A    between atoms: _6  and  _7
REMARK    5  A    between atoms: _13  and  _15
REMARK    6  A    between atoms: _15  and  _16
REMARK    7  A    between atoms: _15  and  _18
REMARK    8  A    between atoms: _18  and  _19
REMARK    9  A    between atoms: _21  and  _23
REMARK   10  A    between atoms: _23  and  _24
REMARK   11  A    between atoms: _26  and  _28
REMARK   12  A    between atoms: _28  and  _29
REMARK   13  A    between atoms: _28  and  _31
REMARK   14  A    between atoms: _31  and  _32
REMARK   15  A    between atoms: _35  and  _37
REMARK   16  A    between atoms: _37  and  _38
REMARK   17  A    between atoms: _37  and  _40
REMARK   18  A    between atoms: _40  and  _41
REMARK   19  A    between atoms: _41  and  _42
REMARK   20  A    between atoms: _48  and  _49
REMARK   21  A    between atoms: _54  and  _56
REMARK   22  A    between atoms: _56  and  _57
REMARK   23  A    between atoms: _56  and  _59
REMARK   24  A    between atoms: _59  and  _60
REMARK   25  A    between atoms: _62  and  _64
REMARK   26  A    between atoms: _64  and  _65
REMARK   27  A    between atoms: _67  and  _69
REMARK   28  A    between atoms: _69  and  _70
REMARK   29  A    between atoms: _69  and  _72
REMARK   30  A    between atoms: _75  and  _77
REMARK   31  A    between atoms: _77  and  _78
REMARK   32  A    between atoms: _77  and  _80
REMARK   33  A    between atoms: _80  and  _81
REMARK   34  A    between atoms: _84  and  _86
REMARK   35  A    between atoms: _86  and  _87
REMARK   36  A    between atoms: _86  and  _89
REMARK   37  A    between atoms: _89  and  _90
REMARK   38  A    between atoms: _93  and  _95
REMARK   39  A    between atoms: _95  and  _96
REMARK   40  A    between atoms: _95  and  _98
REMARK   41  A    between atoms: _98  and  _99
REMARK   42  A    between atoms: _102  and  _104
REMARK   43  A    between atoms: _104  and  _105
REMARK   44  A    between atoms: _107  and  _109
REMARK   45  A    between atoms: _109  and  _110
REMARK   46  A    between atoms: _109  and  _112
REMARK   47  A    between atoms: _112  and  _113
REMARK   48  A    between atoms: _118  and  _120
REMARK   49  A    between atoms: _120  and  _121
REMARK   50  A    between atoms: _120  and  _123
REMARK   51  A    between atoms: _123  and  _124
REMARK   52  A    between atoms: _129  and  _130
REMARK   53  A    between atoms: _132  and  _134
REMARK   54  A    between atoms: _134  and  _135
REMARK   55  A    between atoms: _134  and  _137
REMARK   56  A    between atoms: _137  and  _138
REMARK   57  A    between atoms: _141  and  _143
REMARK   58  A    between atoms: _143  and  _144
REMARK   59  A    between atoms: _146  and  _148
REMARK   60  A    between atoms: _148  and  _149
REMARK   61  A    between atoms: _152  and  _154
REMARK   62  A    between atoms: _154  and  _155
REMARK   63  A    between atoms: _154  and  _157
REMARK   64  A    between atoms: _157  and  _158
REMARK   65  A    between atoms: _161  and  _163
REMARK   66  A    between atoms: _163  and  _164
REMARK   67  A    between atoms: _163  and  _166
REMARK   68  A    between atoms: _166  and  _167
REMARK   69  A    between atoms: _167  and  _168
REMARK   70  A    between atoms: _168  and  _169
REMARK   71  A    between atoms: _178  and  _180
REMARK   72  A    between atoms: _180  and  _181
REMARK   73  A    between atoms: _180  and  _183
REMARK   74  A    between atoms: _183  and  _184
REMARK   75  A    between atoms: _184  and  _185
REMARK   76  A    between atoms: _190  and  _192
REMARK   77  A    between atoms: _192  and  _193
REMARK   78  A    between atoms: _192  and  _195
REMARK   79  A    between atoms: _195  and  _196
REMARK   80  A    between atoms: _202  and  _204
REMARK   81  A    between atoms: _204  and  _205
REMARK   82  A    between atoms: _204  and  _207
REMARK   83  A    between atoms: _209  and  _211
REMARK   84  A    between atoms: _211  and  _212
REMARK   85  A    between atoms: _211  and  _214
REMARK   86  A    between atoms: _214  and  _215
REMARK   87  A    between atoms: _218  and  _220
REMARK   88  A    between atoms: _220  and  _221
REMARK   89  A    between atoms: _220  and  _223
REMARK   90  A    between atoms: _226  and  _228
REMARK   91  A    between atoms: _228  and  _229
REMARK   92  A    between atoms: _228  and  _231
REMARK   93  A    between atoms: _231  and  _232
REMARK   94  A    between atoms: _237  and  _239
REMARK   95  A    between atoms: _239  and  _240
REMARK   96  A    between atoms: _243  and  _245
REMARK   97  A    between atoms: _245  and  _246
REMARK   98  A    between atoms: _245  and  _248
REMARK   99  A    between atoms: _248  and  _249
REMARK  100  A    between atoms: _252  and  _254
REMARK  101  A    between atoms: _254  and  _255
REMARK  102  A    between atoms: _254  and  _257
REMARK  103  A    between atoms: _260  and  _262
REMARK  104  A    between atoms: _262  and  _263
REMARK  105  A    between atoms: _262  and  _265
REMARK  106  A    between atoms: _265  and  _266
REMARK  107  A    between atoms: _266  and  _267
REMARK  108  A    between atoms: _272  and  _274
REMARK  109  A    between atoms: _274  and  _275
REMARK  110  A    between atoms: _274  and  _277
REMARK  111  A    between atoms: _277  and  _278
REMARK  112  A    between atoms: _281  and  _283
REMARK  113  A    between atoms: _283  and  _284
REMARK  114  A    between atoms: _283  and  _286
REMARK  115  A    between atoms: _286  and  _287
REMARK  116  A    between atoms: _292  and  _293
REMARK  117  A    between atoms: _295  and  _297
REMARK  118  A    between atoms: _297  and  _298
REMARK  119  A    between atoms: _297  and  _300
REMARK  120  A    between atoms: _300  and  _301
REMARK  121  A    between atoms: _301  and  _302
REMARK  122  A    between atoms: _307  and  _309
REMARK  123  A    between atoms: _309  and  _310
REMARK  124  A    between atoms: _309  and  _312
REMARK  125  A    between atoms: _312  and  _313
REMARK  126  A    between atoms: _313  and  _314
REMARK  127  A    between atoms: _314  and  _315
REMARK  128  A    between atoms: _315  and  _316
REMARK  129  A    between atoms: _320  and  _322
REMARK  130  A    between atoms: _322  and  _323
REMARK  131  A    between atoms: _322  and  _325
REMARK  132  A    between atoms: _325  and  _326
REMARK  133  A    between atoms: _331  and  _332
REMARK  134  A    between atoms: _334  and  _336
REMARK  135  A    between atoms: _336  and  _337
REMARK  136  A    between atoms: _336  and  _339
REMARK  137  A    between atoms: _339  and  _340
REMARK  138  A    between atoms: _340  and  _341
REMARK  139  A    between atoms: _343  and  _345
REMARK  140  A    between atoms: _345  and  _346
REMARK  141  A    between atoms: _345  and  _348
REMARK  142  A    between atoms: _352  and  _353
REMARK  143  A    between atoms: _358  and  _360
REMARK  144  A    between atoms: _360  and  _361
REMARK  145  A    between atoms: _360  and  _363
REMARK  146  A    between atoms: _366  and  _368
REMARK  147  A    between atoms: _368  and  _369
REMARK  148  A    between atoms: _371  and  _373
REMARK  149  A    between atoms: _373  and  _374
REMARK  150  A    between atoms: _373  and  _376
REMARK  151  A    between atoms: _376  and  _377
REMARK  152  A    between atoms: _377  and  _378
REMARK  153  A    between atoms: _381  and  _383
REMARK  154  A    between atoms: _383  and  _384
REMARK  155  A    between atoms: _383  and  _386
REMARK  156  A    between atoms: _386  and  _387
REMARK  157  A    between atoms: _390  and  _392
REMARK  158  A    between atoms: _392  and  _393
REMARK  159  A    between atoms: _392  and  _395
REMARK  160  A    between atoms: _395  and  _396
REMARK  161  A    between atoms: _396  and  _397
REMARK  162  A    between atoms: _402  and  _404
REMARK  163  A    between atoms: _404  and  _405
REMARK  164  A    between atoms: _404  and  _407
REMARK  165  A    between atoms: _407  and  _408
REMARK  166  A    between atoms: _408  and  _409
REMARK  167  A    between atoms: _409  and  _410
REMARK  168  A    between atoms: _410  and  _411
REMARK  169  A    between atoms: _415  and  _417
REMARK  170  A    between atoms: _417  and  _418
REMARK  171  A    between atoms: _417  and  _420
REMARK  172  A    between atoms: _420  and  _421
REMARK  173  A    between atoms: _426  and  _428
REMARK  174  A    between atoms: _428  and  _429
REMARK  175  A    between atoms: _428  and  _431
REMARK  176  A    between atoms: _431  and  _432
REMARK  177  A    between atoms: _435  and  _437
REMARK  178  A    between atoms: _437  and  _438
REMARK  179  A    between atoms: _437  and  _440
REMARK  180  A    between atoms: _440  and  _441
REMARK  181  A    between atoms: _445  and  _446
REMARK  182  A    between atoms: _451  and  _453
REMARK  183  A    between atoms: _453  and  _454
REMARK  184  A    between atoms: _453  and  _456
REMARK  185  A    between atoms: _459  and  _461
REMARK  186  A    between atoms: _461  and  _462
REMARK  187  A    between atoms: _464  and  _466
REMARK  188  A    between atoms: _466  and  _467
REMARK  189  A    between atoms: _470  and  _472
REMARK  190  A    between atoms: _472  and  _473
REMARK  191  A    between atoms: _472  and  _475
REMARK  192  A    between atoms: _475  and  _476
REMARK  193  A    between atoms: _476  and  _477
REMARK  194  A    between atoms: _477  and  _478
REMARK  195  A    between atoms: _487  and  _489
REMARK  196  A    between atoms: _489  and  _490
REMARK  197  A    between atoms: _489  and  _492
REMARK  198  A    between atoms: _492  and  _493
REMARK  199  A    between atoms: _496  and  _498
REMARK  200  A    between atoms: _498  and  _499
REMARK  201  A    between atoms: _498  and  _501
REMARK  202  A    between atoms: _501  and  _502
REMARK  203  A    between atoms: _502  and  _503
REMARK  204  A    between atoms: _505  and  _507
REMARK  205  A    between atoms: _507  and  _508
REMARK  206  A    between atoms: _507  and  _510
REMARK  207  A    between atoms: _510  and  _511
REMARK  208  A    between atoms: _513  and  _515
REMARK  209  A    between atoms: _515  and  _516
REMARK  210  A    between atoms: _515  and  _518
REMARK  211  A    between atoms: _518  and  _519
REMARK  212  A    between atoms: _519  and  _520
REMARK  213  A    between atoms: _520  and  _521
REMARK  214  A    between atoms: _521  and  _522
REMARK  215  A    between atoms: _526  and  _528
REMARK  216  A    between atoms: _528  and  _529
REMARK  217  A    between atoms: _528  and  _531
REMARK  218  A    between atoms: _531  and  _532
REMARK  219  A    between atoms: _532  and  _533
REMARK  220  A    between atoms: _533  and  _534
REMARK  221  A    between atoms: _534  and  _535
REMARK  222  A    between atoms: _539  and  _541
REMARK  223  A    between atoms: _541  and  _542
REMARK  224  A    between atoms: _541  and  _544
REMARK  225  A    between atoms: _544  and  _545
REMARK  226  A    between atoms: _545  and  _546
REMARK  227  A    between atoms: _548  and  _550
REMARK  228  A    between atoms: _550  and  _551
REMARK  229  A    between atoms: _550  and  _553
REMARK  230  A    between atoms: _553  and  _554
REMARK  231  A    between atoms: _556  and  _558
REMARK  232  A    between atoms: _558  and  _559
REMARK  233  A    between atoms: _558  and  _561
REMARK  234  A    between atoms: _561  and  _562
REMARK  235  A    between atoms: _562  and  _563
REMARK  236  A    between atoms: _563  and  _564
REMARK  237  A    between atoms: _564  and  _565
REMARK  238  A    between atoms: _569  and  _571
REMARK  239  A    between atoms: _571  and  _572
REMARK  240  A    between atoms: _571  and  _574
REMARK  241  A    between atoms: _574  and  _575
REMARK  242  A    between atoms: _577  and  _579
REMARK  243  A    between atoms: _579  and  _580
REMARK  244  A    between atoms: _579  and  _582
REMARK  245  A    between atoms: _582  and  _583
REMARK  246  A    between atoms: _587  and  _588
REMARK  247  A    between atoms: _593  and  _595
REMARK  248  A    between atoms: _595  and  _596
REMARK  249  A    between atoms: _595  and  _598
REMARK  250  A    between atoms: _598  and  _599
REMARK  251  A    between atoms: _604  and  _605
REMARK  252  A    between atoms: _607  and  _609
REMARK  253  A    between atoms: _609  and  _610
REMARK  254  A    between atoms: _609  and  _612
REMARK  255  A    between atoms: _612  and  _613
REMARK                            x       y       z     vdW  Elec       q    Type
REMARK                         _______ _______ _______ _____ _____    ______ ____
ROOT
ATOM      1  O   HOH     1      50.841  24.804  31.689  0.00  0.00    +0.000 OA
ENDROOT
TORSDOF 0
REMARK  Name = ../refined-set-2016/2ov4/2ov4_pocket.pdb
REMARK  255 active torsions:
REMARK  status: ('A' for Active; 'I' for Inactive)
REMARK    1  A    between atoms: _1  and  _3
REMARK    2  A    between atoms: _3  and  _4
REMARK    3  A    between atoms: _3  and  _6
REMARK    4  A    between atoms: _6  and  _7
REMARK    5  A    between atoms: _13  and  _15
REMARK    6  A    between atoms: _15  and  _16
REMARK    7  A    between atoms: _15  and  _18
REMARK    8  A    between atoms: _18  and  _19
REMARK    9  A    between atoms: _21  and  _23
REMARK   10  A    between atoms: _23  and  _24
REMARK   11  A    between atoms: _26  and  _28
REMARK   12  A    between atoms: _28  and  _29
REMARK   13  A    between atoms: _28  and  _31
REMARK   14  A    between atoms: _31  and  _32
REMARK   15  A    between atoms: _35  and  _37
REMARK   16  A    between atoms: _37  and  _38
REMARK   17  A    between atoms: _37  and  _40
REMARK   18  A    between atoms: _40  and  _41
REMARK   19  A    between atoms: _41  and  _42
REMARK   20  A    between atoms: _48  and  _49
REMARK   21  A    between atoms: _54  and  _56
REMARK   22  A    between atoms: _56  and  _57
REMARK   23  A    between atoms: _56  and  _59
REMARK   24  A    between atoms: _59  and  _60
REMARK   25  A    between atoms: _62  and  _64
REMARK   26  A    between atoms: _64  and  _65
REMARK   27  A    between atoms: _67  and  _69
REMARK   28  A    between atoms: _69  and  _70
REMARK   29  A    between atoms: _69  and  _72
REMARK   30  A    between atoms: _75  and  _77
REMARK   31  A    between atoms: _77  and  _78
REMARK   32  A    between atoms: _77  and  _80
REMARK   33  A    between atoms: _80  and  _81
REMARK   34  A    between atoms: _84  and  _86
REMARK   35  A    between atoms: _86  and  _87
REMARK   36  A    between atoms: _86  and  _89
REMARK   37  A    between atoms: _89  and  _90
REMARK   38  A    between atoms: _93  and  _95
REMARK   39  A    between atoms: _95  and  _96
REMARK   40  A    between atoms: _95  and  _98
REMARK   41  A    between atoms: _98  and  _99
REMARK   42  A    between atoms: _102  and  _104
REMARK   43  A    between atoms: _104  and  _105
REMARK   44  A    between atoms: _107  and  _109
REMARK   45  A    between atoms: _109  and  _110
REMARK   46  A    between atoms: _109  and  _112
REMARK   47  A    between atoms: _112  and  _113
REMARK   48  A    between atoms: _118  and  _120
REMARK   49  A    between atoms: _120  and  _121
REMARK   50  A    between atoms: _120  and  _123
REMARK   51  A    between atoms: _123  and  _124
REMARK   52  A    between atoms: _129  and  _130
REMARK   53  A    between atoms: _132  and  _134
REMARK   54  A    between atoms: _134  and  _135
REMARK   55  A    between atoms: _134  and  _137
REMARK   56  A    between atoms: _137  and  _138
REMARK   57  A    between atoms: _141  and  _143
REMARK   58  A    between atoms: _143  and  _144
REMARK   59  A    between atoms: _146  and  _148
REMARK   60  A    between atoms: _148  and  _149
REMARK   61  A    between atoms: _152  and  _154
REMARK   62  A    between atoms: _154  and  _155
REMARK   63  A    between atoms: _154  and  _157
REMARK   64  A    between atoms: _157  and  _158
REMARK   65  A    between atoms: _161  and  _163
REMARK   66  A    between atoms: _163  and  _164
REMARK   67  A    between atoms: _163  and  _166
REMARK   68  A    between atoms: _166  and  _167
REMARK   69  A    between atoms: _167  and  _168
REMARK   70  A    between atoms: _168  and  _169
REMARK   71  A    between atoms: _178  and  _180
REMARK   72  A    between atoms: _180  and  _181
REMARK   73  A    between atoms: _180  and  _183
REMARK   74  A    between atoms: _183  and  _184
REMARK   75  A    between atoms: _184  and  _185
REMARK   76  A    between atoms: _190  and  _192
REMARK   77  A    between atoms: _192  and  _193
REMARK   78  A    between atoms: _192  and  _195
REMARK   79  A    between atoms: _195  and  _196
REMARK   80  A    between atoms: _202  and  _204
REMARK   81  A    between atoms: _204  and  _205
REMARK   82  A    between atoms: _204  and  _207
REMARK   83  A    between atoms: _209  and  _211
REMARK   84  A    between atoms: _211  and  _212
REMARK   85  A    between atoms: _211  and  _214
REMARK   86  A    between atoms: _214  and  _215
REMARK   87  A    between atoms: _218  and  _220
REMARK   88  A    between atoms: _220  and  _221
REMARK   89  A    between atoms: _220  and  _223
REMARK   90  A    between atoms: _226  and  _228
REMARK   91  A    between atoms: _228  and  _229
REMARK   92  A    between atoms: _228  and  _231
REMARK   93  A    between atoms: _231  and  _232
REMARK   94  A    between atoms: _237  and  _239
REMARK   95  A    between atoms: _239  and  _240
REMARK   96  A    between atoms: _243  and  _245
REMARK   97  A    between atoms: _245  and  _246
REMARK   98  A    between atoms: _245  and  _248
REMARK   99  A    between atoms: _248  and  _249
REMARK  100  A    between atoms: _252  and  _254
REMARK  101  A    between atoms: _254  and  _255
REMARK  102  A    between atoms: _254  and  _257
REMARK  103  A    between atoms: _260  and  _262
REMARK  104  A    between atoms: _262  and  _263
REMARK  105  A    between atoms: _262  and  _265
REMARK  106  A    between atoms: _265  and  _266
REMARK  107  A    between atoms: _266  and  _267
REMARK  108  A    between atoms: _272  and  _274
REMARK  109  A    between atoms: _274  and  _275
REMARK  110  A    between atoms: _274  and  _277
REMARK  111  A    between atoms: _277  and  _278
REMARK  112  A    between atoms: _281  and  _283
REMARK  113  A    between atoms: _283  and  _284
REMARK  114  A    between atoms: _283  and  _286
REMARK  115  A    between atoms: _286  and  _287
REMARK  116  A    between atoms: _292  and  _293
REMARK  117  A    between atoms: _295  and  _297
REMARK  118  A    between atoms: _297  and  _298
REMARK  119  A    between atoms: _297  and  _300
REMARK  120  A    between atoms: _300  and  _301
REMARK  121  A    between atoms: _301  and  _302
REMARK  122  A    between atoms: _307  and  _309
REMARK  123  A    between atoms: _309  and  _310
REMARK  124  A    between atoms: _309  and  _312
REMARK  125  A    between atoms: _312  and  _313
REMARK  126  A    between atoms: _313  and  _314
REMARK  127  A    between atoms: _314  and  _315
REMARK  128  A    between atoms: _315  and  _316
REMARK  129  A    between atoms: _320  and  _322
REMARK  130  A    between atoms: _322  and  _323
REMARK  131  A    between atoms: _322  and  _325
REMARK  132  A    between atoms: _325  and  _326
REMARK  133  A    between atoms: _331  and  _332
REMARK  134  A    between atoms: _334  and  _336
REMARK  135  A    between atoms: _336  and  _337
REMARK  136  A    between atoms: _336  and  _339
REMARK  137  A    between atoms: _339  and  _340
REMARK  138  A    between atoms: _340  and  _341
REMARK  139  A    between atoms: _343  and  _345
REMARK  140  A    between atoms: _345  and  _346
REMARK  141  A    between atoms: _345  and  _348
REMARK  142  A    between atoms: _352  and  _353
REMARK  143  A    between atoms: _358  and  _360
REMARK  144  A    between atoms: _360  and  _361
REMARK  145  A    between atoms: _360  and  _363
REMARK  146  A    between atoms: _366  and  _368
REMARK  147  A    between atoms: _368  and  _369
REMARK  148  A    between atoms: _371  and  _373
REMARK  149  A    between atoms: _373  and  _374
REMARK  150  A    between atoms: _373  and  _376
REMARK  151  A    between atoms: _376  and  _377
REMARK  152  A    between atoms: _377  and  _378
REMARK  153  A    between atoms: _381  and  _383
REMARK  154  A    between atoms: _383  and  _384
REMARK  155  A    between atoms: _383  and  _386
REMARK  156  A    between atoms: _386  and  _387
REMARK  157  A    between atoms: _390  and  _392
REMARK  158  A    between atoms: _392  and  _393
REMARK  159  A    between atoms: _392  and  _395
REMARK  160  A    between atoms: _395  and  _396
REMARK  161  A    between atoms: _396  and  _397
REMARK  162  A    between atoms: _402  and  _404
REMARK  163  A    between atoms: _404  and  _405
REMARK  164  A    between atoms: _404  and  _407
REMARK  165  A    between atoms: _407  and  _408
REMARK  166  A    between atoms: _408  and  _409
REMARK  167  A    between atoms: _409  and  _410
REMARK  168  A    between atoms: _410  and  _411
REMARK  169  A    between atoms: _415  and  _417
REMARK  170  A    between atoms: _417  and  _418
REMARK  171  A    between atoms: _417  and  _420
REMARK  172  A    between atoms: _420  and  _421
REMARK  173  A    between atoms: _426  and  _428
REMARK  174  A    between atoms: _428  and  _429
REMARK  175  A    between atoms: _428  and  _431
REMARK  176  A    between atoms: _431  and  _432
REMARK  177  A    between atoms: _435  and  _437
REMARK  178  A    between atoms: _437  and  _438
REMARK  179  A    between atoms: _437  and  _440
REMARK  180  A    between atoms: _440  and  _441
REMARK  181  A    between atoms: _445  and  _446
REMARK  182  A    between atoms: _451  and  _453
REMARK  183  A    between atoms: _453  and  _454
REMARK  184  A    between atoms: _453  and  _456
REMARK  185  A    between atoms: _459  and  _461
REMARK  186  A    between atoms: _461  and  _462
REMARK  187  A    between atoms: _464  and  _466
REMARK  188  A    between atoms: _466  and  _467
REMARK  189  A    between atoms: _470  and  _472
REMARK  190  A    between atoms: _472  and  _473
REMARK  191  A    between atoms: _472  and  _475
REMARK  192  A    between atoms: _475  and  _476
REMARK  193  A    between atoms: _476  and  _477
REMARK  194  A    between atoms: _477  and  _478
REMARK  195  A    between atoms: _487  and  _489
REMARK  196  A    between atoms: _489  and  _490
REMARK  197  A    between atoms: _489  and  _492
REMARK  198  A    between atoms: _492  and  _493
REMARK  199  A    between atoms: _496  and  _498
REMARK  200  A    between atoms: _498  and  _499
REMARK  201  A    between atoms: _498  and  _501
REMARK  202  A    between atoms: _501  and  _502
REMARK  203  A    between atoms: _502  and  _503
REMARK  204  A    between atoms: _505  and  _507
REMARK  205  A    between atoms: _507  and  _508
REMARK  206  A    between atoms: _507  and  _510
REMARK  207  A    between atoms: _510  and  _511
REMARK  208  A    between atoms: _513  and  _515
REMARK  209  A    between atoms: _515  and  _516
REMARK  210  A    between atoms: _515  and  _518
REMARK  211  A    between atoms: _518  and  _519
REMARK  212  A    between atoms: _519  and  _520
REMARK  213  A    between atoms: _520  and  _521
REMARK  214  A    between atoms: _521  and  _522
REMARK  215  A    between atoms: _526  and  _528
REMARK  216  A    between atoms: _528  and  _529
REMARK  217  A    between atoms: _528  and  _531
REMARK  218  A    between atoms: _531  and  _532
REMARK  219  A    between atoms: _532  and  _533
REMARK  220  A    between atoms: _533  and  _534
REMARK  221  A    between atoms: _534  and  _535
REMARK  222  A    between atoms: _539  and  _541
REMARK  223  A    between atoms: _541  and  _542
REMARK  224  A    between atoms: _541  and  _544
REMARK  225  A    between atoms: _544  and  _545
REMARK  226  A    between atoms: _545  and  _546
REMARK  227  A    between atoms: _548  and  _550
REMARK  228  A    between atoms: _550  and  _551
REMARK  229  A    between atoms: _550  and  _553
REMARK  230  A    between atoms: _553  and  _554
REMARK  231  A    between atoms: _556  and  _558
REMARK  232  A    between atoms: _558  and  _559
REMARK  233  A    between atoms: _558  and  _561
REMARK  234  A    between atoms: _561  and  _562
REMARK  235  A    between atoms: _562  and  _563
REMARK  236  A    between atoms: _563  and  _564
REMARK  237  A    between atoms: _564  and  _565
REMARK  238  A    between atoms: _569  and  _571
REMARK  239  A    between atoms: _571  and  _572
REMARK  240  A    between atoms: _571  and  _574
REMARK  241  A    between atoms: _574  and  _575
REMARK  242  A    between atoms: _577  and  _579
REMARK  243  A    between atoms: _579  and  _580
REMARK  244  A    between atoms: _579  and  _582
REMARK  245  A    between atoms: _582  and  _583
REMARK  246  A    between atoms: _587  and  _588
REMARK  247  A    between atoms: _593  and  _595
REMARK  248  A    between atoms: _595  and  _596
REMARK  249  A    between atoms: _595  and  _598
REMARK  250  A    between atoms: _598  and  _599
REMARK  251  A    between atoms: _604  and  _605
REMARK  252  A    between atoms: _607  and  _609
REMARK  253  A    between atoms: _609  and  _610
REMARK  254  A    between atoms: _609  and  _612
REMARK  255  A    between atoms: _612  and  _613
REMARK                            x       y       z     vdW  Elec       q    Type
REMARK                         _______ _______ _______ _____ _____    ______ ____
ROOT
ATOM      1  O   HOH     1      50.296  29.810  44.460  0.00  0.00    +0.000 OA
ENDROOT
TORSDOF 0
REMARK  Name = ../refined-set-2016/2ov4/2ov4_pocket.pdb
REMARK  255 active torsions:
REMARK  status: ('A' for Active; 'I' for Inactive)
REMARK    1  A    between atoms: _1  and  _3
REMARK    2  A    between atoms: _3  and  _4
REMARK    3  A    between atoms: _3  and  _6
REMARK    4  A    between atoms: _6  and  _7
REMARK    5  A    between atoms: _13  and  _15
REMARK    6  A    between atoms: _15  and  _16
REMARK    7  A    between atoms: _15  and  _18
REMARK    8  A    between atoms: _18  and  _19
REMARK    9  A    between atoms: _21  and  _23
REMARK   10  A    between atoms: _23  and  _24
REMARK   11  A    between atoms: _26  and  _28
REMARK   12  A    between atoms: _28  and  _29
REMARK   13  A    between atoms: _28  and  _31
REMARK   14  A    between atoms: _31  and  _32
REMARK   15  A    between atoms: _35  and  _37
REMARK   16  A    between atoms: _37  and  _38
REMARK   17  A    between atoms: _37  and  _40
REMARK   18  A    between atoms: _40  and  _41
REMARK   19  A    between atoms: _41  and  _42
REMARK   20  A    between atoms: _48  and  _49
REMARK   21  A    between atoms: _54  and  _56
REMARK   22  A    between atoms: _56  and  _57
REMARK   23  A    between atoms: _56  and  _59
REMARK   24  A    between atoms: _59  and  _60
REMARK   25  A    between atoms: _62  and  _64
REMARK   26  A    between atoms: _64  and  _65
REMARK   27  A    between atoms: _67  and  _69
REMARK   28  A    between atoms: _69  and  _70
REMARK   29  A    between atoms: _69  and  _72
REMARK   30  A    between atoms: _75  and  _77
REMARK   31  A    between atoms: _77  and  _78
REMARK   32  A    between atoms: _77  and  _80
REMARK   33  A    between atoms: _80  and  _81
REMARK   34  A    between atoms: _84  and  _86
REMARK   35  A    between atoms: _86  and  _87
REMARK   36  A    between atoms: _86  and  _89
REMARK   37  A    between atoms: _89  and  _90
REMARK   38  A    between atoms: _93  and  _95
REMARK   39  A    between atoms: _95  and  _96
REMARK   40  A    between atoms: _95  and  _98
REMARK   41  A    between atoms: _98  and  _99
REMARK   42  A    between atoms: _102  and  _104
REMARK   43  A    between atoms: _104  and  _105
REMARK   44  A    between atoms: _107  and  _109
REMARK   45  A    between atoms: _109  and  _110
REMARK   46  A    between atoms: _109  and  _112
REMARK   47  A    between atoms: _112  and  _113
REMARK   48  A    between atoms: _118  and  _120
REMARK   49  A    between atoms: _120  and  _121
REMARK   50  A    between atoms: _120  and  _123
REMARK   51  A    between atoms: _123  and  _124
REMARK   52  A    between atoms: _129  and  _130
REMARK   53  A    between atoms: _132  and  _134
REMARK   54  A    between atoms: _134  and  _135
REMARK   55  A    between atoms: _134  and  _137
REMARK   56  A    between atoms: _137  and  _138
REMARK   57  A    between atoms: _141  and  _143
REMARK   58  A    between atoms: _143  and  _144
REMARK   59  A    between atoms: _146  and  _148
REMARK   60  A    between atoms: _148  and  _149
REMARK   61  A    between atoms: _152  and  _154
REMARK   62  A    between atoms: _154  and  _155
REMARK   63  A    between atoms: _154  and  _157
REMARK   64  A    between atoms: _157  and  _158
REMARK   65  A    between atoms: _161  and  _163
REMARK   66  A    between atoms: _163  and  _164
REMARK   67  A    between atoms: _163  and  _166
REMARK   68  A    between atoms: _166  and  _167
REMARK   69  A    between atoms: _167  and  _168
REMARK   70  A    between atoms: _168  and  _169
REMARK   71  A    between atoms: _178  and  _180
REMARK   72  A    between atoms: _180  and  _181
REMARK   73  A    between atoms: _180  and  _183
REMARK   74  A    between atoms: _183  and  _184
REMARK   75  A    between atoms: _184  and  _185
REMARK   76  A    between atoms: _190  and  _192
REMARK   77  A    between atoms: _192  and  _193
REMARK   78  A    between atoms: _192  and  _195
REMARK   79  A    between atoms: _195  and  _196
REMARK   80  A    between atoms: _202  and  _204
REMARK   81  A    between atoms: _204  and  _205
REMARK   82  A    between atoms: _204  and  _207
REMARK   83  A    between atoms: _209  and  _211
REMARK   84  A    between atoms: _211  and  _212
REMARK   85  A    between atoms: _211  and  _214
REMARK   86  A    between atoms: _214  and  _215
REMARK   87  A    between atoms: _218  and  _220
REMARK   88  A    between atoms: _220  and  _221
REMARK   89  A    between atoms: _220  and  _223
REMARK   90  A    between atoms: _226  and  _228
REMARK   91  A    between atoms: _228  and  _229
REMARK   92  A    between atoms: _228  and  _231
REMARK   93  A    between atoms: _231  and  _232
REMARK   94  A    between atoms: _237  and  _239
REMARK   95  A    between atoms: _239  and  _240
REMARK   96  A    between atoms: _243  and  _245
REMARK   97  A    between atoms: _245  and  _246
REMARK   98  A    between atoms: _245  and  _248
REMARK   99  A    between atoms: _248  and  _249
REMARK  100  A    between atoms: _252  and  _254
REMARK  101  A    between atoms: _254  and  _255
REMARK  102  A    between atoms: _254  and  _257
REMARK  103  A    between atoms: _260  and  _262
REMARK  104  A    between atoms: _262  and  _263
REMARK  105  A    between atoms: _262  and  _265
REMARK  106  A    between atoms: _265  and  _266
REMARK  107  A    between atoms: _266  and  _267
REMARK  108  A    between atoms: _272  and  _274
REMARK  109  A    between atoms: _274  and  _275
REMARK  110  A    between atoms: _274  and  _277
REMARK  111  A    between atoms: _277  and  _278
REMARK  112  A    between atoms: _281  and  _283
REMARK  113  A    between atoms: _283  and  _284
REMARK  114  A    between atoms: _283  and  _286
REMARK  115  A    between atoms: _286  and  _287
REMARK  116  A    between atoms: _292  and  _293
REMARK  117  A    between atoms: _295  and  _297
REMARK  118  A    between atoms: _297  and  _298
REMARK  119  A    between atoms: _297  and  _300
REMARK  120  A    between atoms: _300  and  _301
REMARK  121  A    between atoms: _301  and  _302
REMARK  122  A    between atoms: _307  and  _309
REMARK  123  A    between atoms: _309  and  _310
REMARK  124  A    between atoms: _309  and  _312
REMARK  125  A    between atoms: _312  and  _313
REMARK  126  A    between atoms: _313  and  _314
REMARK  127  A    between atoms: _314  and  _315
REMARK  128  A    between atoms: _315  and  _316
REMARK  129  A    between atoms: _320  and  _322
REMARK  130  A    between atoms: _322  and  _323
REMARK  131  A    between atoms: _322  and  _325
REMARK  132  A    between atoms: _325  and  _326
REMARK  133  A    between atoms: _331  and  _332
REMARK  134  A    between atoms: _334  and  _336
REMARK  135  A    between atoms: _336  and  _337
REMARK  136  A    between atoms: _336  and  _339
REMARK  137  A    between atoms: _339  and  _340
REMARK  138  A    between atoms: _340  and  _341
REMARK  139  A    between atoms: _343  and  _345
REMARK  140  A    between atoms: _345  and  _346
REMARK  141  A    between atoms: _345  and  _348
REMARK  142  A    between atoms: _352  and  _353
REMARK  143  A    between atoms: _358  and  _360
REMARK  144  A    between atoms: _360  and  _361
REMARK  145  A    between atoms: _360  and  _363
REMARK  146  A    between atoms: _366  and  _368
REMARK  147  A    between atoms: _368  and  _369
REMARK  148  A    between atoms: _371  and  _373
REMARK  149  A    between atoms: _373  and  _374
REMARK  150  A    between atoms: _373  and  _376
REMARK  151  A    between atoms: _376  and  _377
REMARK  152  A    between atoms: _377  and  _378
REMARK  153  A    between atoms: _381  and  _383
REMARK  154  A    between atoms: _383  and  _384
REMARK  155  A    between atoms: _383  and  _386
REMARK  156  A    between atoms: _386  and  _387
REMARK  157  A    between atoms: _390  and  _392
REMARK  158  A    between atoms: _392  and  _393
REMARK  159  A    between atoms: _392  and  _395
REMARK  160  A    between atoms: _395  and  _396
REMARK  161  A    between atoms: _396  and  _397
REMARK  162  A    between atoms: _402  and  _404
REMARK  163  A    between atoms: _404  and  _405
REMARK  164  A    between atoms: _404  and  _407
REMARK  165  A    between atoms: _407  and  _408
REMARK  166  A    between atoms: _408  and  _409
REMARK  167  A    between atoms: _409  and  _410
REMARK  168  A    between atoms: _410  and  _411
REMARK  169  A    between atoms: _415  and  _417
REMARK  170  A    between atoms: _417  and  _418
REMARK  171  A    between atoms: _417  and  _420
REMARK  172  A    between atoms: _420  and  _421
REMARK  173  A    between atoms: _426  and  _428
REMARK  174  A    between atoms: _428  and  _429
REMARK  175  A    between atoms: _428  and  _431
REMARK  176  A    between atoms: _431  and  _432
REMARK  177  A    between atoms: _435  and  _437
REMARK  178  A    between atoms: _437  and  _438
REMARK  179  A    between atoms: _437  and  _440
REMARK  180  A    between atoms: _440  and  _441
REMARK  181  A    between atoms: _445  and  _446
REMARK  182  A    between atoms: _451  and  _453
REMARK  183  A    between atoms: _453  and  _454
REMARK  184  A    between atoms: _453  and  _456
REMARK  185  A    between atoms: _459  and  _461
REMARK  186  A    between atoms: _461  and  _462
REMARK  187  A    between atoms: _464  and  _466
REMARK  188  A    between atoms: _466  and  _467
REMARK  189  A    between atoms: _470  and  _472
REMARK  190  A    between atoms: _472  and  _473
REMARK  191  A    between atoms: _472  and  _475
REMARK  192  A    between atoms: _475  and  _476
REMARK  193  A    between atoms: _476  and  _477
REMARK  194  A    between atoms: _477  and  _478
REMARK  195  A    between atoms: _487  and  _489
REMARK  196  A    between atoms: _489  and  _490
REMARK  197  A    between atoms: _489  and  _492
REMARK  198  A    between atoms: _492  and  _493
REMARK  199  A    between atoms: _496  and  _498
REMARK  200  A    between atoms: _498  and  _499
REMARK  201  A    between atoms: _498  and  _501
REMARK  202  A    between atoms: _501  and  _502
REMARK  203  A    between atoms: _502  and  _503
REMARK  204  A    between atoms: _505  and  _507
REMARK  205  A    between atoms: _507  and  _508
REMARK  206  A    between atoms: _507  and  _510
REMARK  207  A    between atoms: _510  and  _511
REMARK  208  A    between atoms: _513  and  _515
REMARK  209  A    between atoms: _515  and  _516
REMARK  210  A    between atoms: _515  and  _518
REMARK  211  A    between atoms: _518  and  _519
REMARK  212  A    between atoms: _519  and  _520
REMARK  213  A    between atoms: _520  and  _521
REMARK  214  A    between atoms: _521  and  _522
REMARK  215  A    between atoms: _526  and  _528
REMARK  216  A    between atoms: _528  and  _529
REMARK  217  A    between atoms: _528  and  _531
REMARK  218  A    between atoms: _531  and  _532
REMARK  219  A    between atoms: _532  and  _533
REMARK  220  A    between atoms: _533  and  _534
REMARK  221  A    between atoms: _534  and  _535
REMARK  222  A    between atoms: _539  and  _541
REMARK  223  A    between atoms: _541  and  _542
REMARK  224  A    between atoms: _541  and  _544
REMARK  225  A    between atoms: _544  and  _545
REMARK  226  A    between atoms: _545  and  _546
REMARK  227  A    between atoms: _548  and  _550
REMARK  228  A    between atoms: _550  and  _551
REMARK  229  A    between atoms: _550  and  _553
REMARK  230  A    between atoms: _553  and  _554
REMARK  231  A    between atoms: _556  and  _558
REMARK  232  A    between atoms: _558  and  _559
REMARK  233  A    between atoms: _558  and  _561
REMARK  234  A    between atoms: _561  and  _562
REMARK  235  A    between atoms: _562  and  _563
REMARK  236  A    between atoms: _563  and  _564
REMARK  237  A    between atoms: _564  and  _565
REMARK  238  A    between atoms: _569  and  _571
REMARK  239  A    between atoms: _571  and  _572
REMARK  240  A    between atoms: _571  and  _574
REMARK  241  A    between atoms: _574  and  _575
REMARK  242  A    between atoms: _577  and  _579
REMARK  243  A    between atoms: _579  and  _580
REMARK  244  A    between atoms: _579  and  _582
REMARK  245  A    between atoms: _582  and  _583
REMARK  246  A    between atoms: _587  and  _588
REMARK  247  A    between atoms: _593  and  _595
REMARK  248  A    between atoms: _595  and  _596
REMARK  249  A    between atoms: _595  and  _598
REMARK  250  A    between atoms: _598  and  _599
REMARK  251  A    between atoms: _604  and  _605
REMARK  252  A    between atoms: _607  and  _609
REMARK  253  A    between atoms: _609  and  _610
REMARK  254  A    between atoms: _609  and  _612
REMARK  255  A    between atoms: _612  and  _613
REMARK                            x       y       z     vdW  Elec       q    Type
REMARK                         _______ _______ _______ _____ _____    ______ ____
ROOT
ATOM      1  O   HOH     1      44.253  28.448  33.732  0.00  0.00    +0.000 OA
ENDROOT
TORSDOF 0
REMARK  Name = ../refined-set-2016/2ov4/2ov4_pocket.pdb
REMARK  255 active torsions:
REMARK  status: ('A' for Active; 'I' for Inactive)
REMARK    1  A    between atoms: _1  and  _3
REMARK    2  A    between atoms: _3  and  _4
REMARK    3  A    between atoms: _3  and  _6
REMARK    4  A    between atoms: _6  and  _7
REMARK    5  A    between atoms: _13  and  _15
REMARK    6  A    between atoms: _15  and  _16
REMARK    7  A    between atoms: _15  and  _18
REMARK    8  A    between atoms: _18  and  _19
REMARK    9  A    between atoms: _21  and  _23
REMARK   10  A    between atoms: _23  and  _24
REMARK   11  A    between atoms: _26  and  _28
REMARK   12  A    between atoms: _28  and  _29
REMARK   13  A    between atoms: _28  and  _31
REMARK   14  A    between atoms: _31  and  _32
REMARK   15  A    between atoms: _35  and  _37
REMARK   16  A    between atoms: _37  and  _38
REMARK   17  A    between atoms: _37  and  _40
REMARK   18  A    between atoms: _40  and  _41
REMARK   19  A    between atoms: _41  and  _42
REMARK   20  A    between atoms: _48  and  _49
REMARK   21  A    between atoms: _54  and  _56
REMARK   22  A    between atoms: _56  and  _57
REMARK   23  A    between atoms: _56  and  _59
REMARK   24  A    between atoms: _59  and  _60
REMARK   25  A    between atoms: _62  and  _64
REMARK   26  A    between atoms: _64  and  _65
REMARK   27  A    between atoms: _67  and  _69
REMARK   28  A    between atoms: _69  and  _70
REMARK   29  A    between atoms: _69  and  _72
REMARK   30  A    between atoms: _75  and  _77
REMARK   31  A    between atoms: _77  and  _78
REMARK   32  A    between atoms: _77  and  _80
REMARK   33  A    between atoms: _80  and  _81
REMARK   34  A    between atoms: _84  and  _86
REMARK   35  A    between atoms: _86  and  _87
REMARK   36  A    between atoms: _86  and  _89
REMARK   37  A    between atoms: _89  and  _90
REMARK   38  A    between atoms: _93  and  _95
REMARK   39  A    between atoms: _95  and  _96
REMARK   40  A    between atoms: _95  and  _98
REMARK   41  A    between atoms: _98  and  _99
REMARK   42  A    between atoms: _102  and  _104
REMARK   43  A    between atoms: _104  and  _105
REMARK   44  A    between atoms: _107  and  _109
REMARK   45  A    between atoms: _109  and  _110
REMARK   46  A    between atoms: _109  and  _112
REMARK   47  A    between atoms: _112  and  _113
REMARK   48  A    between atoms: _118  and  _120
REMARK   49  A    between atoms: _120  and  _121
REMARK   50  A    between atoms: _120  and  _123
REMARK   51  A    between atoms: _123  and  _124
REMARK   52  A    between atoms: _129  and  _130
REMARK   53  A    between atoms: _132  and  _134
REMARK   54  A    between atoms: _134  and  _135
REMARK   55  A    between atoms: _134  and  _137
REMARK   56  A    between atoms: _137  and  _138
REMARK   57  A    between atoms: _141  and  _143
REMARK   58  A    between atoms: _143  and  _144
REMARK   59  A    between atoms: _146  and  _148
REMARK   60  A    between atoms: _148  and  _149
REMARK   61  A    between atoms: _152  and  _154
REMARK   62  A    between atoms: _154  and  _155
REMARK   63  A    between atoms: _154  and  _157
REMARK   64  A    between atoms: _157  and  _158
REMARK   65  A    between atoms: _161  and  _163
REMARK   66  A    between atoms: _163  and  _164
REMARK   67  A    between atoms: _163  and  _166
REMARK   68  A    between atoms: _166  and  _167
REMARK   69  A    between atoms: _167  and  _168
REMARK   70  A    between atoms: _168  and  _169
REMARK   71  A    between atoms: _178  and  _180
REMARK   72  A    between atoms: _180  and  _181
REMARK   73  A    between atoms: _180  and  _183
REMARK   74  A    between atoms: _183  and  _184
REMARK   75  A    between atoms: _184  and  _185
REMARK   76  A    between atoms: _190  and  _192
REMARK   77  A    between atoms: _192  and  _193
REMARK   78  A    between atoms: _192  and  _195
REMARK   79  A    between atoms: _195  and  _196
REMARK   80  A    between atoms: _202  and  _204
REMARK   81  A    between atoms: _204  and  _205
REMARK   82  A    between atoms: _204  and  _207
REMARK   83  A    between atoms: _209  and  _211
REMARK   84  A    between atoms: _211  and  _212
REMARK   85  A    between atoms: _211  and  _214
REMARK   86  A    between atoms: _214  and  _215
REMARK   87  A    between atoms: _218  and  _220
REMARK   88  A    between atoms: _220  and  _221
REMARK   89  A    between atoms: _220  and  _223
REMARK   90  A    between atoms: _226  and  _228
REMARK   91  A    between atoms: _228  and  _229
REMARK   92  A    between atoms: _228  and  _231
REMARK   93  A    between atoms: _231  and  _232
REMARK   94  A    between atoms: _237  and  _239
REMARK   95  A    between atoms: _239  and  _240
REMARK   96  A    between atoms: _243  and  _245
REMARK   97  A    between atoms: _245  and  _246
REMARK   98  A    between atoms: _245  and  _248
REMARK   99  A    between atoms: _248  and  _249
REMARK  100  A    between atoms: _252  and  _254
REMARK  101  A    between atoms: _254  and  _255
REMARK  102  A    between atoms: _254  and  _257
REMARK  103  A    between atoms: _260  and  _262
REMARK  104  A    between atoms: _262  and  _263
REMARK  105  A    between atoms: _262  and  _265
REMARK  106  A    between atoms: _265  and  _266
REMARK  107  A    between atoms: _266  and  _267
REMARK  108  A    between atoms: _272  and  _274
REMARK  109  A    between atoms: _274  and  _275
REMARK  110  A    between atoms: _274  and  _277
REMARK  111  A    between atoms: _277  and  _278
REMARK  112  A    between atoms: _281  and  _283
REMARK  113  A    between atoms: _283  and  _284
REMARK  114  A    between atoms: _283  and  _286
REMARK  115  A    between atoms: _286  and  _287
REMARK  116  A    between atoms: _292  and  _293
REMARK  117  A    between atoms: _295  and  _297
REMARK  118  A    between atoms: _297  and  _298
REMARK  119  A    between atoms: _297  and  _300
REMARK  120  A    between atoms: _300  and  _301
REMARK  121  A    between atoms: _301  and  _302
REMARK  122  A    between atoms: _307  and  _309
REMARK  123  A    between atoms: _309  and  _310
REMARK  124  A    between atoms: _309  and  _312
REMARK  125  A    between atoms: _312  and  _313
REMARK  126  A    between atoms: _313  and  _314
REMARK  127  A    between atoms: _314  and  _315
REMARK  128  A    between atoms: _315  and  _316
REMARK  129  A    between atoms: _320  and  _322
REMARK  130  A    between atoms: _322  and  _323
REMARK  131  A    between atoms: _322  and  _325
REMARK  132  A    between atoms: _325  and  _326
REMARK  133  A    between atoms: _331  and  _332
REMARK  134  A    between atoms: _334  and  _336
REMARK  135  A    between atoms: _336  and  _337
REMARK  136  A    between atoms: _336  and  _339
REMARK  137  A    between atoms: _339  and  _340
REMARK  138  A    between atoms: _340  and  _341
REMARK  139  A    between atoms: _343  and  _345
REMARK  140  A    between atoms: _345  and  _346
REMARK  141  A    between atoms: _345  and  _348
REMARK  142  A    between atoms: _352  and  _353
REMARK  143  A    between atoms: _358  and  _360
REMARK  144  A    between atoms: _360  and  _361
REMARK  145  A    between atoms: _360  and  _363
REMARK  146  A    between atoms: _366  and  _368
REMARK  147  A    between atoms: _368  and  _369
REMARK  148  A    between atoms: _371  and  _373
REMARK  149  A    between atoms: _373  and  _374
REMARK  150  A    between atoms: _373  and  _376
REMARK  151  A    between atoms: _376  and  _377
REMARK  152  A    between atoms: _377  and  _378
REMARK  153  A    between atoms: _381  and  _383
REMARK  154  A    between atoms: _383  and  _384
REMARK  155  A    between atoms: _383  and  _386
REMARK  156  A    between atoms: _386  and  _387
REMARK  157  A    between atoms: _390  and  _392
REMARK  158  A    between atoms: _392  and  _393
REMARK  159  A    between atoms: _392  and  _395
REMARK  160  A    between atoms: _395  and  _396
REMARK  161  A    between atoms: _396  and  _397
REMARK  162  A    between atoms: _402  and  _404
REMARK  163  A    between atoms: _404  and  _405
REMARK  164  A    between atoms: _404  and  _407
REMARK  165  A    between atoms: _407  and  _408
REMARK  166  A    between atoms: _408  and  _409
REMARK  167  A    between atoms: _409  and  _410
REMARK  168  A    between atoms: _410  and  _411
REMARK  169  A    between atoms: _415  and  _417
REMARK  170  A    between atoms: _417  and  _418
REMARK  171  A    between atoms: _417  and  _420
REMARK  172  A    between atoms: _420  and  _421
REMARK  173  A    between atoms: _426  and  _428
REMARK  174  A    between atoms: _428  and  _429
REMARK  175  A    between atoms: _428  and  _431
REMARK  176  A    between atoms: _431  and  _432
REMARK  177  A    between atoms: _435  and  _437
REMARK  178  A    between atoms: _437  and  _438
REMARK  179  A    between atoms: _437  and  _440
REMARK  180  A    between atoms: _440  and  _441
REMARK  181  A    between atoms: _445  and  _446
REMARK  182  A    between atoms: _451  and  _453
REMARK  183  A    between atoms: _453  and  _454
REMARK  184  A    between atoms: _453  and  _456
REMARK  185  A    between atoms: _459  and  _461
REMARK  186  A    between atoms: _461  and  _462
REMARK  187  A    between atoms: _464  and  _466
REMARK  188  A    between atoms: _466  and  _467
REMARK  189  A    between atoms: _470  and  _472
REMARK  190  A    between atoms: _472  and  _473
REMARK  191  A    between atoms: _472  and  _475
REMARK  192  A    between atoms: _475  and  _476
REMARK  193  A    between atoms: _476  and  _477
REMARK  194  A    between atoms: _477  and  _478
REMARK  195  A    between atoms: _487  and  _489
REMARK  196  A    between atoms: _489  and  _490
REMARK  197  A    between atoms: _489  and  _492
REMARK  198  A    between atoms: _492  and  _493
REMARK  199  A    between atoms: _496  and  _498
REMARK  200  A    between atoms: _498  and  _499
REMARK  201  A    between atoms: _498  and  _501
REMARK  202  A    between atoms: _501  and  _502
REMARK  203  A    between atoms: _502  and  _503
REMARK  204  A    between atoms: _505  and  _507
REMARK  205  A    between atoms: _507  and  _508
REMARK  206  A    between atoms: _507  and  _510
REMARK  207  A    between atoms: _510  and  _511
REMARK  208  A    between atoms: _513  and  _515
REMARK  209  A    between atoms: _515  and  _516
REMARK  210  A    between atoms: _515  and  _518
REMARK  211  A    between atoms: _518  and  _519
REMARK  212  A    between atoms: _519  and  _520
REMARK  213  A    between atoms: _520  and  _521
REMARK  214  A    between atoms: _521  and  _522
REMARK  215  A    between atoms: _526  and  _528
REMARK  216  A    between atoms: _528  and  _529
REMARK  217  A    between atoms: _528  and  _531
REMARK  218  A    between atoms: _531  and  _532
REMARK  219  A    between atoms: _532  and  _533
REMARK  220  A    between atoms: _533  and  _534
REMARK  221  A    between atoms: _534  and  _535
REMARK  222  A    between atoms: _539  and  _541
REMARK  223  A    between atoms: _541  and  _542
REMARK  224  A    between atoms: _541  and  _544
REMARK  225  A    between atoms: _544  and  _545
REMARK  226  A    between atoms: _545  and  _546
REMARK  227  A    between atoms: _548  and  _550
REMARK  228  A    between atoms: _550  and  _551
REMARK  229  A    between atoms: _550  and  _553
REMARK  230  A    between atoms: _553  and  _554
REMARK  231  A    between atoms: _556  and  _558
REMARK  232  A    between atoms: _558  and  _559
REMARK  233  A    between atoms: _558  and  _561
REMARK  234  A    between atoms: _561  and  _562
REMARK  235  A    between atoms: _562  and  _563
REMARK  236  A    between atoms: _563  and  _564
REMARK  237  A    between atoms: _564  and  _565
REMARK  238  A    between atoms: _569  and  _571
REMARK  239  A    between atoms: _571  and  _572
REMARK  240  A    between atoms: _571  and  _574
REMARK  241  A    between atoms: _574  and  _575
REMARK  242  A    between atoms: _577  and  _579
REMARK  243  A    between atoms: _579  and  _580
REMARK  244  A    between atoms: _579  and  _582
REMARK  245  A    between atoms: _582  and  _583
REMARK  246  A    between atoms: _587  and  _588
REMARK  247  A    between atoms: _593  and  _595
REMARK  248  A    between atoms: _595  and  _596
REMARK  249  A    between atoms: _595  and  _598
REMARK  250  A    between atoms: _598  and  _599
REMARK  251  A    between atoms: _604  and  _605
REMARK  252  A    between atoms: _607  and  _609
REMARK  253  A    between atoms: _609  and  _610
REMARK  254  A    between atoms: _609  and  _612
REMARK  255  A    between atoms: _612  and  _613
REMARK                            x       y       z     vdW  Elec       q    Type
REMARK                         _______ _______ _______ _____ _____    ______ ____
ROOT
ATOM      1  O   HOH     1      44.900  27.154  29.578  0.00  0.00    +0.000 OA
ENDROOT
TORSDOF 0
REMARK  Name = ../refined-set-2016/2ov4/2ov4_pocket.pdb
REMARK  255 active torsions:
REMARK  status: ('A' for Active; 'I' for Inactive)
REMARK    1  A    between atoms: _1  and  _3
REMARK    2  A    between atoms: _3  and  _4
REMARK    3  A    between atoms: _3  and  _6
REMARK    4  A    between atoms: _6  and  _7
REMARK    5  A    between atoms: _13  and  _15
REMARK    6  A    between atoms: _15  and  _16
REMARK    7  A    between atoms: _15  and  _18
REMARK    8  A    between atoms: _18  and  _19
REMARK    9  A    between atoms: _21  and  _23
REMARK   10  A    between atoms: _23  and  _24
REMARK   11  A    between atoms: _26  and  _28
REMARK   12  A    between atoms: _28  and  _29
REMARK   13  A    between atoms: _28  and  _31
REMARK   14  A    between atoms: _31  and  _32
REMARK   15  A    between atoms: _35  and  _37
REMARK   16  A    between atoms: _37  and  _38
REMARK   17  A    between atoms: _37  and  _40
REMARK   18  A    between atoms: _40  and  _41
REMARK   19  A    between atoms: _41  and  _42
REMARK   20  A    between atoms: _48  and  _49
REMARK   21  A    between atoms: _54  and  _56
REMARK   22  A    between atoms: _56  and  _57
REMARK   23  A    between atoms: _56  and  _59
REMARK   24  A    between atoms: _59  and  _60
REMARK   25  A    between atoms: _62  and  _64
REMARK   26  A    between atoms: _64  and  _65
REMARK   27  A    between atoms: _67  and  _69
REMARK   28  A    between atoms: _69  and  _70
REMARK   29  A    between atoms: _69  and  _72
REMARK   30  A    between atoms: _75  and  _77
REMARK   31  A    between atoms: _77  and  _78
REMARK   32  A    between atoms: _77  and  _80
REMARK   33  A    between atoms: _80  and  _81
REMARK   34  A    between atoms: _84  and  _86
REMARK   35  A    between atoms: _86  and  _87
REMARK   36  A    between atoms: _86  and  _89
REMARK   37  A    between atoms: _89  and  _90
REMARK   38  A    between atoms: _93  and  _95
REMARK   39  A    between atoms: _95  and  _96
REMARK   40  A    between atoms: _95  and  _98
REMARK   41  A    between atoms: _98  and  _99
REMARK   42  A    between atoms: _102  and  _104
REMARK   43  A    between atoms: _104  and  _105
REMARK   44  A    between atoms: _107  and  _109
REMARK   45  A    between atoms: _109  and  _110
REMARK   46  A    between atoms: _109  and  _112
REMARK   47  A    between atoms: _112  and  _113
REMARK   48  A    between atoms: _118  and  _120
REMARK   49  A    between atoms: _120  and  _121
REMARK   50  A    between atoms: _120  and  _123
REMARK   51  A    between atoms: _123  and  _124
REMARK   52  A    between atoms: _129  and  _130
REMARK   53  A    between atoms: _132  and  _134
REMARK   54  A    between atoms: _134  and  _135
REMARK   55  A    between atoms: _134  and  _137
REMARK   56  A    between atoms: _137  and  _138
REMARK   57  A    between atoms: _141  and  _143
REMARK   58  A    between atoms: _143  and  _144
REMARK   59  A    between atoms: _146  and  _148
REMARK   60  A    between atoms: _148  and  _149
REMARK   61  A    between atoms: _152  and  _154
REMARK   62  A    between atoms: _154  and  _155
REMARK   63  A    between atoms: _154  and  _157
REMARK   64  A    between atoms: _157  and  _158
REMARK   65  A    between atoms: _161  and  _163
REMARK   66  A    between atoms: _163  and  _164
REMARK   67  A    between atoms: _163  and  _166
REMARK   68  A    between atoms: _166  and  _167
REMARK   69  A    between atoms: _167  and  _168
REMARK   70  A    between atoms: _168  and  _169
REMARK   71  A    between atoms: _178  and  _180
REMARK   72  A    between atoms: _180  and  _181
REMARK   73  A    between atoms: _180  and  _183
REMARK   74  A    between atoms: _183  and  _184
REMARK   75  A    between atoms: _184  and  _185
REMARK   76  A    between atoms: _190  and  _192
REMARK   77  A    between atoms: _192  and  _193
REMARK   78  A    between atoms: _192  and  _195
REMARK   79  A    between atoms: _195  and  _196
REMARK   80  A    between atoms: _202  and  _204
REMARK   81  A    between atoms: _204  and  _205
REMARK   82  A    between atoms: _204  and  _207
REMARK   83  A    between atoms: _209  and  _211
REMARK   84  A    between atoms: _211  and  _212
REMARK   85  A    between atoms: _211  and  _214
REMARK   86  A    between atoms: _214  and  _215
REMARK   87  A    between atoms: _218  and  _220
REMARK   88  A    between atoms: _220  and  _221
REMARK   89  A    between atoms: _220  and  _223
REMARK   90  A    between atoms: _226  and  _228
REMARK   91  A    between atoms: _228  and  _229
REMARK   92  A    between atoms: _228  and  _231
REMARK   93  A    between atoms: _231  and  _232
REMARK   94  A    between atoms: _237  and  _239
REMARK   95  A    between atoms: _239  and  _240
REMARK   96  A    between atoms: _243  and  _245
REMARK   97  A    between atoms: _245  and  _246
REMARK   98  A    between atoms: _245  and  _248
REMARK   99  A    between atoms: _248  and  _249
REMARK  100  A    between atoms: _252  and  _254
REMARK  101  A    between atoms: _254  and  _255
REMARK  102  A    between atoms: _254  and  _257
REMARK  103  A    between atoms: _260  and  _262
REMARK  104  A    between atoms: _262  and  _263
REMARK  105  A    between atoms: _262  and  _265
REMARK  106  A    between atoms: _265  and  _266
REMARK  107  A    between atoms: _266  and  _267
REMARK  108  A    between atoms: _272  and  _274
REMARK  109  A    between atoms: _274  and  _275
REMARK  110  A    between atoms: _274  and  _277
REMARK  111  A    between atoms: _277  and  _278
REMARK  112  A    between atoms: _281  and  _283
REMARK  113  A    between atoms: _283  and  _284
REMARK  114  A    between atoms: _283  and  _286
REMARK  115  A    between atoms: _286  and  _287
REMARK  116  A    between atoms: _292  and  _293
REMARK  117  A    between atoms: _295  and  _297
REMARK  118  A    between atoms: _297  and  _298
REMARK  119  A    between atoms: _297  and  _300
REMARK  120  A    between atoms: _300  and  _301
REMARK  121  A    between atoms: _301  and  _302
REMARK  122  A    between atoms: _307  and  _309
REMARK  123  A    between atoms: _309  and  _310
REMARK  124  A    between atoms: _309  and  _312
REMARK  125  A    between atoms: _312  and  _313
REMARK  126  A    between atoms: _313  and  _314
REMARK  127  A    between atoms: _314  and  _315
REMARK  128  A    between atoms: _315  and  _316
REMARK  129  A    between atoms: _320  and  _322
REMARK  130  A    between atoms: _322  and  _323
REMARK  131  A    between atoms: _322  and  _325
REMARK  132  A    between atoms: _325  and  _326
REMARK  133  A    between atoms: _331  and  _332
REMARK  134  A    between atoms: _334  and  _336
REMARK  135  A    between atoms: _336  and  _337
REMARK  136  A    between atoms: _336  and  _339
REMARK  137  A    between atoms: _339  and  _340
REMARK  138  A    between atoms: _340  and  _341
REMARK  139  A    between atoms: _343  and  _345
REMARK  140  A    between atoms: _345  and  _346
REMARK  141  A    between atoms: _345  and  _348
REMARK  142  A    between atoms: _352  and  _353
REMARK  143  A    between atoms: _358  and  _360
REMARK  144  A    between atoms: _360  and  _361
REMARK  145  A    between atoms: _360  and  _363
REMARK  146  A    between atoms: _366  and  _368
REMARK  147  A    between atoms: _368  and  _369
REMARK  148  A    between atoms: _371  and  _373
REMARK  149  A    between atoms: _373  and  _374
REMARK  150  A    between atoms: _373  and  _376
REMARK  151  A    between atoms: _376  and  _377
REMARK  152  A    between atoms: _377  and  _378
REMARK  153  A    between atoms: _381  and  _383
REMARK  154  A    between atoms: _383  and  _384
REMARK  155  A    between atoms: _383  and  _386
REMARK  156  A    between atoms: _386  and  _387
REMARK  157  A    between atoms: _390  and  _392
REMARK  158  A    between atoms: _392  and  _393
REMARK  159  A    between atoms: _392  and  _395
REMARK  160  A    between atoms: _395  and  _396
REMARK  161  A    between atoms: _396  and  _397
REMARK  162  A    between atoms: _402  and  _404
REMARK  163  A    between atoms: _404  and  _405
REMARK  164  A    between atoms: _404  and  _407
REMARK  165  A    between atoms: _407  and  _408
REMARK  166  A    between atoms: _408  and  _409
REMARK  167  A    between atoms: _409  and  _410
REMARK  168  A    between atoms: _410  and  _411
REMARK  169  A    between atoms: _415  and  _417
REMARK  170  A    between atoms: _417  and  _418
REMARK  171  A    between atoms: _417  and  _420
REMARK  172  A    between atoms: _420  and  _421
REMARK  173  A    between atoms: _426  and  _428
REMARK  174  A    between atoms: _428  and  _429
REMARK  175  A    between atoms: _428  and  _431
REMARK  176  A    between atoms: _431  and  _432
REMARK  177  A    between atoms: _435  and  _437
REMARK  178  A    between atoms: _437  and  _438
REMARK  179  A    between atoms: _437  and  _440
REMARK  180  A    between atoms: _440  and  _441
REMARK  181  A    between atoms: _445  and  _446
REMARK  182  A    between atoms: _451  and  _453
REMARK  183  A    between atoms: _453  and  _454
REMARK  184  A    between atoms: _453  and  _456
REMARK  185  A    between atoms: _459  and  _461
REMARK  186  A    between atoms: _461  and  _462
REMARK  187  A    between atoms: _464  and  _466
REMARK  188  A    between atoms: _466  and  _467
REMARK  189  A    between atoms: _470  and  _472
REMARK  190  A    between atoms: _472  and  _473
REMARK  191  A    between atoms: _472  and  _475
REMARK  192  A    between atoms: _475  and  _476
REMARK  193  A    between atoms: _476  and  _477
REMARK  194  A    between atoms: _477  and  _478
REMARK  195  A    between atoms: _487  and  _489
REMARK  196  A    between atoms: _489  and  _490
REMARK  197  A    between atoms: _489  and  _492
REMARK  198  A    between atoms: _492  and  _493
REMARK  199  A    between atoms: _496  and  _498
REMARK  200  A    between atoms: _498  and  _499
REMARK  201  A    between atoms: _498  and  _501
REMARK  202  A    between atoms: _501  and  _502
REMARK  203  A    between atoms: _502  and  _503
REMARK  204  A    between atoms: _505  and  _507
REMARK  205  A    between atoms: _507  and  _508
REMARK  206  A    between atoms: _507  and  _510
REMARK  207  A    between atoms: _510  and  _511
REMARK  208  A    between atoms: _513  and  _515
REMARK  209  A    between atoms: _515  and  _516
REMARK  210  A    between atoms: _515  and  _518
REMARK  211  A    between atoms: _518  and  _519
REMARK  212  A    between atoms: _519  and  _520
REMARK  213  A    between atoms: _520  and  _521
REMARK  214  A    between atoms: _521  and  _522
REMARK  215  A    between atoms: _526  and  _528
REMARK  216  A    between atoms: _528  and  _529
REMARK  217  A    between atoms: _528  and  _531
REMARK  218  A    between atoms: _531  and  _532
REMARK  219  A    between atoms: _532  and  _533
REMARK  220  A    between atoms: _533  and  _534
REMARK  221  A    between atoms: _534  and  _535
REMARK  222  A    between atoms: _539  and  _541
REMARK  223  A    between atoms: _541  and  _542
REMARK  224  A    between atoms: _541  and  _544
REMARK  225  A    between atoms: _544  and  _545
REMARK  226  A    between atoms: _545  and  _546
REMARK  227  A    between atoms: _548  and  _550
REMARK  228  A    between atoms: _550  and  _551
REMARK  229  A    between atoms: _550  and  _553
REMARK  230  A    between atoms: _553  and  _554
REMARK  231  A    between atoms: _556  and  _558
REMARK  232  A    between atoms: _558  and  _559
REMARK  233  A    between atoms: _558  and  _561
REMARK  234  A    between atoms: _561  and  _562
REMARK  235  A    between atoms: _562  and  _563
REMARK  236  A    between atoms: _563  and  _564
REMARK  237  A    between atoms: _564  and  _565
REMARK  238  A    between atoms: _569  and  _571
REMARK  239  A    between atoms: _571  and  _572
REMARK  240  A    between atoms: _571  and  _574
REMARK  241  A    between atoms: _574  and  _575
REMARK  242  A    between atoms: _577  and  _579
REMARK  243  A    between atoms: _579  and  _580
REMARK  244  A    between atoms: _579  and  _582
REMARK  245  A    between atoms: _582  and  _583
REMARK  246  A    between atoms: _587  and  _588
REMARK  247  A    between atoms: _593  and  _595
REMARK  248  A    between atoms: _595  and  _596
REMARK  249  A    between atoms: _595  and  _598
REMARK  250  A    between atoms: _598  and  _599
REMARK  251  A    between atoms: _604  and  _605
REMARK  252  A    between atoms: _607  and  _609
REMARK  253  A    between atoms: _609  and  _610
REMARK  254  A    between atoms: _609  and  _612
REMARK  255  A    between atoms: _612  and  _613
REMARK                            x       y       z     vdW  Elec       q    Type
REMARK                         _______ _______ _______ _____ _____    ______ ____
ROOT
ATOM      1  O   HOH     1      57.791  23.055  38.908  0.00  0.00    +0.000 OA
ENDROOT
TORSDOF 0
REMARK  Name = ../refined-set-2016/2ov4/2ov4_pocket.pdb
REMARK  255 active torsions:
REMARK  status: ('A' for Active; 'I' for Inactive)
REMARK    1  A    between atoms: _1  and  _3
REMARK    2  A    between atoms: _3  and  _4
REMARK    3  A    between atoms: _3  and  _6
REMARK    4  A    between atoms: _6  and  _7
REMARK    5  A    between atoms: _13  and  _15
REMARK    6  A    between atoms: _15  and  _16
REMARK    7  A    between atoms: _15  and  _18
REMARK    8  A    between atoms: _18  and  _19
REMARK    9  A    between atoms: _21  and  _23
REMARK   10  A    between atoms: _23  and  _24
REMARK   11  A    between atoms: _26  and  _28
REMARK   12  A    between atoms: _28  and  _29
REMARK   13  A    between atoms: _28  and  _31
REMARK   14  A    between atoms: _31  and  _32
REMARK   15  A    between atoms: _35  and  _37
REMARK   16  A    between atoms: _37  and  _38
REMARK   17  A    between atoms: _37  and  _40
REMARK   18  A    between atoms: _40  and  _41
REMARK   19  A    between atoms: _41  and  _42
REMARK   20  A    between atoms: _48  and  _49
REMARK   21  A    between atoms: _54  and  _56
REMARK   22  A    between atoms: _56  and  _57
REMARK   23  A    between atoms: _56  and  _59
REMARK   24  A    between atoms: _59  and  _60
REMARK   25  A    between atoms: _62  and  _64
REMARK   26  A    between atoms: _64  and  _65
REMARK   27  A    between atoms: _67  and  _69
REMARK   28  A    between atoms: _69  and  _70
REMARK   29  A    between atoms: _69  and  _72
REMARK   30  A    between atoms: _75  and  _77
REMARK   31  A    between atoms: _77  and  _78
REMARK   32  A    between atoms: _77  and  _80
REMARK   33  A    between atoms: _80  and  _81
REMARK   34  A    between atoms: _84  and  _86
REMARK   35  A    between atoms: _86  and  _87
REMARK   36  A    between atoms: _86  and  _89
REMARK   37  A    between atoms: _89  and  _90
REMARK   38  A    between atoms: _93  and  _95
REMARK   39  A    between atoms: _95  and  _96
REMARK   40  A    between atoms: _95  and  _98
REMARK   41  A    between atoms: _98  and  _99
REMARK   42  A    between atoms: _102  and  _104
REMARK   43  A    between atoms: _104  and  _105
REMARK   44  A    between atoms: _107  and  _109
REMARK   45  A    between atoms: _109  and  _110
REMARK   46  A    between atoms: _109  and  _112
REMARK   47  A    between atoms: _112  and  _113
REMARK   48  A    between atoms: _118  and  _120
REMARK   49  A    between atoms: _120  and  _121
REMARK   50  A    between atoms: _120  and  _123
REMARK   51  A    between atoms: _123  and  _124
REMARK   52  A    between atoms: _129  and  _130
REMARK   53  A    between atoms: _132  and  _134
REMARK   54  A    between atoms: _134  and  _135
REMARK   55  A    between atoms: _134  and  _137
REMARK   56  A    between atoms: _137  and  _138
REMARK   57  A    between atoms: _141  and  _143
REMARK   58  A    between atoms: _143  and  _144
REMARK   59  A    between atoms: _146  and  _148
REMARK   60  A    between atoms: _148  and  _149
REMARK   61  A    between atoms: _152  and  _154
REMARK   62  A    between atoms: _154  and  _155
REMARK   63  A    between atoms: _154  and  _157
REMARK   64  A    between atoms: _157  and  _158
REMARK   65  A    between atoms: _161  and  _163
REMARK   66  A    between atoms: _163  and  _164
REMARK   67  A    between atoms: _163  and  _166
REMARK   68  A    between atoms: _166  and  _167
REMARK   69  A    between atoms: _167  and  _168
REMARK   70  A    between atoms: _168  and  _169
REMARK   71  A    between atoms: _178  and  _180
REMARK   72  A    between atoms: _180  and  _181
REMARK   73  A    between atoms: _180  and  _183
REMARK   74  A    between atoms: _183  and  _184
REMARK   75  A    between atoms: _184  and  _185
REMARK   76  A    between atoms: _190  and  _192
REMARK   77  A    between atoms: _192  and  _193
REMARK   78  A    between atoms: _192  and  _195
REMARK   79  A    between atoms: _195  and  _196
REMARK   80  A    between atoms: _202  and  _204
REMARK   81  A    between atoms: _204  and  _205
REMARK   82  A    between atoms: _204  and  _207
REMARK   83  A    between atoms: _209  and  _211
REMARK   84  A    between atoms: _211  and  _212
REMARK   85  A    between atoms: _211  and  _214
REMARK   86  A    between atoms: _214  and  _215
REMARK   87  A    between atoms: _218  and  _220
REMARK   88  A    between atoms: _220  and  _221
REMARK   89  A    between atoms: _220  and  _223
REMARK   90  A    between atoms: _226  and  _228
REMARK   91  A    between atoms: _228  and  _229
REMARK   92  A    between atoms: _228  and  _231
REMARK   93  A    between atoms: _231  and  _232
REMARK   94  A    between atoms: _237  and  _239
REMARK   95  A    between atoms: _239  and  _240
REMARK   96  A    between atoms: _243  and  _245
REMARK   97  A    between atoms: _245  and  _246
REMARK   98  A    between atoms: _245  and  _248
REMARK   99  A    between atoms: _248  and  _249
REMARK  100  A    between atoms: _252  and  _254
REMARK  101  A    between atoms: _254  and  _255
REMARK  102  A    between atoms: _254  and  _257
REMARK  103  A    between atoms: _260  and  _262
REMARK  104  A    between atoms: _262  and  _263
REMARK  105  A    between atoms: _262  and  _265
REMARK  106  A    between atoms: _265  and  _266
REMARK  107  A    between atoms: _266  and  _267
REMARK  108  A    between atoms: _272  and  _274
REMARK  109  A    between atoms: _274  and  _275
REMARK  110  A    between atoms: _274  and  _277
REMARK  111  A    between atoms: _277  and  _278
REMARK  112  A    between atoms: _281  and  _283
REMARK  113  A    between atoms: _283  and  _284
REMARK  114  A    between atoms: _283  and  _286
REMARK  115  A    between atoms: _286  and  _287
REMARK  116  A    between atoms: _292  and  _293
REMARK  117  A    between atoms: _295  and  _297
REMARK  118  A    between atoms: _297  and  _298
REMARK  119  A    between atoms: _297  and  _300
REMARK  120  A    between atoms: _300  and  _301
REMARK  121  A    between atoms: _301  and  _302
REMARK  122  A    between atoms: _307  and  _309
REMARK  123  A    between atoms: _309  and  _310
REMARK  124  A    between atoms: _309  and  _312
REMARK  125  A    between atoms: _312  and  _313
REMARK  126  A    between atoms: _313  and  _314
REMARK  127  A    between atoms: _314  and  _315
REMARK  128  A    between atoms: _315  and  _316
REMARK  129  A    between atoms: _320  and  _322
REMARK  130  A    between atoms: _322  and  _323
REMARK  131  A    between atoms: _322  and  _325
REMARK  132  A    between atoms: _325  and  _326
REMARK  133  A    between atoms: _331  and  _332
REMARK  134  A    between atoms: _334  and  _336
REMARK  135  A    between atoms: _336  and  _337
REMARK  136  A    between atoms: _336  and  _339
REMARK  137  A    between atoms: _339  and  _340
REMARK  138  A    between atoms: _340  and  _341
REMARK  139  A    between atoms: _343  and  _345
REMARK  140  A    between atoms: _345  and  _346
REMARK  141  A    between atoms: _345  and  _348
REMARK  142  A    between atoms: _352  and  _353
REMARK  143  A    between atoms: _358  and  _360
REMARK  144  A    between atoms: _360  and  _361
REMARK  145  A    between atoms: _360  and  _363
REMARK  146  A    between atoms: _366  and  _368
REMARK  147  A    between atoms: _368  and  _369
REMARK  148  A    between atoms: _371  and  _373
REMARK  149  A    between atoms: _373  and  _374
REMARK  150  A    between atoms: _373  and  _376
REMARK  151  A    between atoms: _376  and  _377
REMARK  152  A    between atoms: _377  and  _378
REMARK  153  A    between atoms: _381  and  _383
REMARK  154  A    between atoms: _383  and  _384
REMARK  155  A    between atoms: _383  and  _386
REMARK  156  A    between atoms: _386  and  _387
REMARK  157  A    between atoms: _390  and  _392
REMARK  158  A    between atoms: _392  and  _393
REMARK  159  A    between atoms: _392  and  _395
REMARK  160  A    between atoms: _395  and  _396
REMARK  161  A    between atoms: _396  and  _397
REMARK  162  A    between atoms: _402  and  _404
REMARK  163  A    between atoms: _404  and  _405
REMARK  164  A    between atoms: _404  and  _407
REMARK  165  A    between atoms: _407  and  _408
REMARK  166  A    between atoms: _408  and  _409
REMARK  167  A    between atoms: _409  and  _410
REMARK  168  A    between atoms: _410  and  _411
REMARK  169  A    between atoms: _415  and  _417
REMARK  170  A    between atoms: _417  and  _418
REMARK  171  A    between atoms: _417  and  _420
REMARK  172  A    between atoms: _420  and  _421
REMARK  173  A    between atoms: _426  and  _428
REMARK  174  A    between atoms: _428  and  _429
REMARK  175  A    between atoms: _428  and  _431
REMARK  176  A    between atoms: _431  and  _432
REMARK  177  A    between atoms: _435  and  _437
REMARK  178  A    between atoms: _437  and  _438
REMARK  179  A    between atoms: _437  and  _440
REMARK  180  A    between atoms: _440  and  _441
REMARK  181  A    between atoms: _445  and  _446
REMARK  182  A    between atoms: _451  and  _453
REMARK  183  A    between atoms: _453  and  _454
REMARK  184  A    between atoms: _453  and  _456
REMARK  185  A    between atoms: _459  and  _461
REMARK  186  A    between atoms: _461  and  _462
REMARK  187  A    between atoms: _464  and  _466
REMARK  188  A    between atoms: _466  and  _467
REMARK  189  A    between atoms: _470  and  _472
REMARK  190  A    between atoms: _472  and  _473
REMARK  191  A    between atoms: _472  and  _475
REMARK  192  A    between atoms: _475  and  _476
REMARK  193  A    between atoms: _476  and  _477
REMARK  194  A    between atoms: _477  and  _478
REMARK  195  A    between atoms: _487  and  _489
REMARK  196  A    between atoms: _489  and  _490
REMARK  197  A    between atoms: _489  and  _492
REMARK  198  A    between atoms: _492  and  _493
REMARK  199  A    between atoms: _496  and  _498
REMARK  200  A    between atoms: _498  and  _499
REMARK  201  A    between atoms: _498  and  _501
REMARK  202  A    between atoms: _501  and  _502
REMARK  203  A    between atoms: _502  and  _503
REMARK  204  A    between atoms: _505  and  _507
REMARK  205  A    between atoms: _507  and  _508
REMARK  206  A    between atoms: _507  and  _510
REMARK  207  A    between atoms: _510  and  _511
REMARK  208  A    between atoms: _513  and  _515
REMARK  209  A    between atoms: _515  and  _516
REMARK  210  A    between atoms: _515  and  _518
REMARK  211  A    between atoms: _518  and  _519
REMARK  212  A    between atoms: _519  and  _520
REMARK  213  A    between atoms: _520  and  _521
REMARK  214  A    between atoms: _521  and  _522
REMARK  215  A    between atoms: _526  and  _528
REMARK  216  A    between atoms: _528  and  _529
REMARK  217  A    between atoms: _528  and  _531
REMARK  218  A    between atoms: _531  and  _532
REMARK  219  A    between atoms: _532  and  _533
REMARK  220  A    between atoms: _533  and  _534
REMARK  221  A    between atoms: _534  and  _535
REMARK  222  A    between atoms: _539  and  _541
REMARK  223  A    between atoms: _541  and  _542
REMARK  224  A    between atoms: _541  and  _544
REMARK  225  A    between atoms: _544  and  _545
REMARK  226  A    between atoms: _545  and  _546
REMARK  227  A    between atoms: _548  and  _550
REMARK  228  A    between atoms: _550  and  _551
REMARK  229  A    between atoms: _550  and  _553
REMARK  230  A    between atoms: _553  and  _554
REMARK  231  A    between atoms: _556  and  _558
REMARK  232  A    between atoms: _558  and  _559
REMARK  233  A    between atoms: _558  and  _561
REMARK  234  A    between atoms: _561  and  _562
REMARK  235  A    between atoms: _562  and  _563
REMARK  236  A    between atoms: _563  and  _564
REMARK  237  A    between atoms: _564  and  _565
REMARK  238  A    between atoms: _569  and  _571
REMARK  239  A    between atoms: _571  and  _572
REMARK  240  A    between atoms: _571  and  _574
REMARK  241  A    between atoms: _574  and  _575
REMARK  242  A    between atoms: _577  and  _579
REMARK  243  A    between atoms: _579  and  _580
REMARK  244  A    between atoms: _579  and  _582
REMARK  245  A    between atoms: _582  and  _583
REMARK  246  A    between atoms: _587  and  _588
REMARK  247  A    between atoms: _593  and  _595
REMARK  248  A    between atoms: _595  and  _596
REMARK  249  A    between atoms: _595  and  _598
REMARK  250  A    between atoms: _598  and  _599
REMARK  251  A    between atoms: _604  and  _605
REMARK  252  A    between atoms: _607  and  _609
REMARK  253  A    between atoms: _609  and  _610
REMARK  254  A    between atoms: _609  and  _612
REMARK  255  A    between atoms: _612  and  _613
REMARK                            x       y       z     vdW  Elec       q    Type
REMARK                         _______ _______ _______ _____ _____    ______ ____
ROOT
ATOM      1  O   HOH     1      43.174  15.624  33.831  0.00  0.00    +0.000 OA
ENDROOT
TORSDOF 0
REMARK  Name = ../refined-set-2016/2ov4/2ov4_pocket.pdb
REMARK  255 active torsions:
REMARK  status: ('A' for Active; 'I' for Inactive)
REMARK    1  A    between atoms: _1  and  _3
REMARK    2  A    between atoms: _3  and  _4
REMARK    3  A    between atoms: _3  and  _6
REMARK    4  A    between atoms: _6  and  _7
REMARK    5  A    between atoms: _13  and  _15
REMARK    6  A    between atoms: _15  and  _16
REMARK    7  A    between atoms: _15  and  _18
REMARK    8  A    between atoms: _18  and  _19
REMARK    9  A    between atoms: _21  and  _23
REMARK   10  A    between atoms: _23  and  _24
REMARK   11  A    between atoms: _26  and  _28
REMARK   12  A    between atoms: _28  and  _29
REMARK   13  A    between atoms: _28  and  _31
REMARK   14  A    between atoms: _31  and  _32
REMARK   15  A    between atoms: _35  and  _37
REMARK   16  A    between atoms: _37  and  _38
REMARK   17  A    between atoms: _37  and  _40
REMARK   18  A    between atoms: _40  and  _41
REMARK   19  A    between atoms: _41  and  _42
REMARK   20  A    between atoms: _48  and  _49
REMARK   21  A    between atoms: _54  and  _56
REMARK   22  A    between atoms: _56  and  _57
REMARK   23  A    between atoms: _56  and  _59
REMARK   24  A    between atoms: _59  and  _60
REMARK   25  A    between atoms: _62  and  _64
REMARK   26  A    between atoms: _64  and  _65
REMARK   27  A    between atoms: _67  and  _69
REMARK   28  A    between atoms: _69  and  _70
REMARK   29  A    between atoms: _69  and  _72
REMARK   30  A    between atoms: _75  and  _77
REMARK   31  A    between atoms: _77  and  _78
REMARK   32  A    between atoms: _77  and  _80
REMARK   33  A    between atoms: _80  and  _81
REMARK   34  A    between atoms: _84  and  _86
REMARK   35  A    between atoms: _86  and  _87
REMARK   36  A    between atoms: _86  and  _89
REMARK   37  A    between atoms: _89  and  _90
REMARK   38  A    between atoms: _93  and  _95
REMARK   39  A    between atoms: _95  and  _96
REMARK   40  A    between atoms: _95  and  _98
REMARK   41  A    between atoms: _98  and  _99
REMARK   42  A    between atoms: _102  and  _104
REMARK   43  A    between atoms: _104  and  _105
REMARK   44  A    between atoms: _107  and  _109
REMARK   45  A    between atoms: _109  and  _110
REMARK   46  A    between atoms: _109  and  _112
REMARK   47  A    between atoms: _112  and  _113
REMARK   48  A    between atoms: _118  and  _120
REMARK   49  A    between atoms: _120  and  _121
REMARK   50  A    between atoms: _120  and  _123
REMARK   51  A    between atoms: _123  and  _124
REMARK   52  A    between atoms: _129  and  _130
REMARK   53  A    between atoms: _132  and  _134
REMARK   54  A    between atoms: _134  and  _135
REMARK   55  A    between atoms: _134  and  _137
REMARK   56  A    between atoms: _137  and  _138
REMARK   57  A    between atoms: _141  and  _143
REMARK   58  A    between atoms: _143  and  _144
REMARK   59  A    between atoms: _146  and  _148
REMARK   60  A    between atoms: _148  and  _149
REMARK   61  A    between atoms: _152  and  _154
REMARK   62  A    between atoms: _154  and  _155
REMARK   63  A    between atoms: _154  and  _157
REMARK   64  A    between atoms: _157  and  _158
REMARK   65  A    between atoms: _161  and  _163
REMARK   66  A    between atoms: _163  and  _164
REMARK   67  A    between atoms: _163  and  _166
REMARK   68  A    between atoms: _166  and  _167
REMARK   69  A    between atoms: _167  and  _168
REMARK   70  A    between atoms: _168  and  _169
REMARK   71  A    between atoms: _178  and  _180
REMARK   72  A    between atoms: _180  and  _181
REMARK   73  A    between atoms: _180  and  _183
REMARK   74  A    between atoms: _183  and  _184
REMARK   75  A    between atoms: _184  and  _185
REMARK   76  A    between atoms: _190  and  _192
REMARK   77  A    between atoms: _192  and  _193
REMARK   78  A    between atoms: _192  and  _195
REMARK   79  A    between atoms: _195  and  _196
REMARK   80  A    between atoms: _202  and  _204
REMARK   81  A    between atoms: _204  and  _205
REMARK   82  A    between atoms: _204  and  _207
REMARK   83  A    between atoms: _209  and  _211
REMARK   84  A    between atoms: _211  and  _212
REMARK   85  A    between atoms: _211  and  _214
REMARK   86  A    between atoms: _214  and  _215
REMARK   87  A    between atoms: _218  and  _220
REMARK   88  A    between atoms: _220  and  _221
REMARK   89  A    between atoms: _220  and  _223
REMARK   90  A    between atoms: _226  and  _228
REMARK   91  A    between atoms: _228  and  _229
REMARK   92  A    between atoms: _228  and  _231
REMARK   93  A    between atoms: _231  and  _232
REMARK   94  A    between atoms: _237  and  _239
REMARK   95  A    between atoms: _239  and  _240
REMARK   96  A    between atoms: _243  and  _245
REMARK   97  A    between atoms: _245  and  _246
REMARK   98  A    between atoms: _245  and  _248
REMARK   99  A    between atoms: _248  and  _249
REMARK  100  A    between atoms: _252  and  _254
REMARK  101  A    between atoms: _254  and  _255
REMARK  102  A    between atoms: _254  and  _257
REMARK  103  A    between atoms: _260  and  _262
REMARK  104  A    between atoms: _262  and  _263
REMARK  105  A    between atoms: _262  and  _265
REMARK  106  A    between atoms: _265  and  _266
REMARK  107  A    between atoms: _266  and  _267
REMARK  108  A    between atoms: _272  and  _274
REMARK  109  A    between atoms: _274  and  _275
REMARK  110  A    between atoms: _274  and  _277
REMARK  111  A    between atoms: _277  and  _278
REMARK  112  A    between atoms: _281  and  _283
REMARK  113  A    between atoms: _283  and  _284
REMARK  114  A    between atoms: _283  and  _286
REMARK  115  A    between atoms: _286  and  _287
REMARK  116  A    between atoms: _292  and  _293
REMARK  117  A    between atoms: _295  and  _297
REMARK  118  A    between atoms: _297  and  _298
REMARK  119  A    between atoms: _297  and  _300
REMARK  120  A    between atoms: _300  and  _301
REMARK  121  A    between atoms: _301  and  _302
REMARK  122  A    between atoms: _307  and  _309
REMARK  123  A    between atoms: _309  and  _310
REMARK  124  A    between atoms: _309  and  _312
REMARK  125  A    between atoms: _312  and  _313
REMARK  126  A    between atoms: _313  and  _314
REMARK  127  A    between atoms: _314  and  _315
REMARK  128  A    between atoms: _315  and  _316
REMARK  129  A    between atoms: _320  and  _322
REMARK  130  A    between atoms: _322  and  _323
REMARK  131  A    between atoms: _322  and  _325
REMARK  132  A    between atoms: _325  and  _326
REMARK  133  A    between atoms: _331  and  _332
REMARK  134  A    between atoms: _334  and  _336
REMARK  135  A    between atoms: _336  and  _337
REMARK  136  A    between atoms: _336  and  _339
REMARK  137  A    between atoms: _339  and  _340
REMARK  138  A    between atoms: _340  and  _341
REMARK  139  A    between atoms: _343  and  _345
REMARK  140  A    between atoms: _345  and  _346
REMARK  141  A    between atoms: _345  and  _348
REMARK  142  A    between atoms: _352  and  _353
REMARK  143  A    between atoms: _358  and  _360
REMARK  144  A    between atoms: _360  and  _361
REMARK  145  A    between atoms: _360  and  _363
REMARK  146  A    between atoms: _366  and  _368
REMARK  147  A    between atoms: _368  and  _369
REMARK  148  A    between atoms: _371  and  _373
REMARK  149  A    between atoms: _373  and  _374
REMARK  150  A    between atoms: _373  and  _376
REMARK  151  A    between atoms: _376  and  _377
REMARK  152  A    between atoms: _377  and  _378
REMARK  153  A    between atoms: _381  and  _383
REMARK  154  A    between atoms: _383  and  _384
REMARK  155  A    between atoms: _383  and  _386
REMARK  156  A    between atoms: _386  and  _387
REMARK  157  A    between atoms: _390  and  _392
REMARK  158  A    between atoms: _392  and  _393
REMARK  159  A    between atoms: _392  and  _395
REMARK  160  A    between atoms: _395  and  _396
REMARK  161  A    between atoms: _396  and  _397
REMARK  162  A    between atoms: _402  and  _404
REMARK  163  A    between atoms: _404  and  _405
REMARK  164  A    between atoms: _404  and  _407
REMARK  165  A    between atoms: _407  and  _408
REMARK  166  A    between atoms: _408  and  _409
REMARK  167  A    between atoms: _409  and  _410
REMARK  168  A    between atoms: _410  and  _411
REMARK  169  A    between atoms: _415  and  _417
REMARK  170  A    between atoms: _417  and  _418
REMARK  171  A    between atoms: _417  and  _420
REMARK  172  A    between atoms: _420  and  _421
REMARK  173  A    between atoms: _426  and  _428
REMARK  174  A    between atoms: _428  and  _429
REMARK  175  A    between atoms: _428  and  _431
REMARK  176  A    between atoms: _431  and  _432
REMARK  177  A    between atoms: _435  and  _437
REMARK  178  A    between atoms: _437  and  _438
REMARK  179  A    between atoms: _437  and  _440
REMARK  180  A    between atoms: _440  and  _441
REMARK  181  A    between atoms: _445  and  _446
REMARK  182  A    between atoms: _451  and  _453
REMARK  183  A    between atoms: _453  and  _454
REMARK  184  A    between atoms: _453  and  _456
REMARK  185  A    between atoms: _459  and  _461
REMARK  186  A    between atoms: _461  and  _462
REMARK  187  A    between atoms: _464  and  _466
REMARK  188  A    between atoms: _466  and  _467
REMARK  189  A    between atoms: _470  and  _472
REMARK  190  A    between atoms: _472  and  _473
REMARK  191  A    between atoms: _472  and  _475
REMARK  192  A    between atoms: _475  and  _476
REMARK  193  A    between atoms: _476  and  _477
REMARK  194  A    between atoms: _477  and  _478
REMARK  195  A    between atoms: _487  and  _489
REMARK  196  A    between atoms: _489  and  _490
REMARK  197  A    between atoms: _489  and  _492
REMARK  198  A    between atoms: _492  and  _493
REMARK  199  A    between atoms: _496  and  _498
REMARK  200  A    between atoms: _498  and  _499
REMARK  201  A    between atoms: _498  and  _501
REMARK  202  A    between atoms: _501  and  _502
REMARK  203  A    between atoms: _502  and  _503
REMARK  204  A    between atoms: _505  and  _507
REMARK  205  A    between atoms: _507  and  _508
REMARK  206  A    between atoms: _507  and  _510
REMARK  207  A    between atoms: _510  and  _511
REMARK  208  A    between atoms: _513  and  _515
REMARK  209  A    between atoms: _515  and  _516
REMARK  210  A    between atoms: _515  and  _518
REMARK  211  A    between atoms: _518  and  _519
REMARK  212  A    between atoms: _519  and  _520
REMARK  213  A    between atoms: _520  and  _521
REMARK  214  A    between atoms: _521  and  _522
REMARK  215  A    between atoms: _526  and  _528
REMARK  216  A    between atoms: _528  and  _529
REMARK  217  A    between atoms: _528  and  _531
REMARK  218  A    between atoms: _531  and  _532
REMARK  219  A    between atoms: _532  and  _533
REMARK  220  A    between atoms: _533  and  _534
REMARK  221  A    between atoms: _534  and  _535
REMARK  222  A    between atoms: _539  and  _541
REMARK  223  A    between atoms: _541  and  _542
REMARK  224  A    between atoms: _541  and  _544
REMARK  225  A    between atoms: _544  and  _545
REMARK  226  A    between atoms: _545  and  _546
REMARK  227  A    between atoms: _548  and  _550
REMARK  228  A    between atoms: _550  and  _551
REMARK  229  A    between atoms: _550  and  _553
REMARK  230  A    between atoms: _553  and  _554
REMARK  231  A    between atoms: _556  and  _558
REMARK  232  A    between atoms: _558  and  _559
REMARK  233  A    between atoms: _558  and  _561
REMARK  234  A    between atoms: _561  and  _562
REMARK  235  A    between atoms: _562  and  _563
REMARK  236  A    between atoms: _563  and  _564
REMARK  237  A    between atoms: _564  and  _565
REMARK  238  A    between atoms: _569  and  _571
REMARK  239  A    between atoms: _571  and  _572
REMARK  240  A    between atoms: _571  and  _574
REMARK  241  A    between atoms: _574  and  _575
REMARK  242  A    between atoms: _577  and  _579
REMARK  243  A    between atoms: _579  and  _580
REMARK  244  A    between atoms: _579  and  _582
REMARK  245  A    between atoms: _582  and  _583
REMARK  246  A    between atoms: _587  and  _588
REMARK  247  A    between atoms: _593  and  _595
REMARK  248  A    between atoms: _595  and  _596
REMARK  249  A    between atoms: _595  and  _598
REMARK  250  A    between atoms: _598  and  _599
REMARK  251  A    between atoms: _604  and  _605
REMARK  252  A    between atoms: _607  and  _609
REMARK  253  A    between atoms: _609  and  _610
REMARK  254  A    between atoms: _609  and  _612
REMARK  255  A    between atoms: _612  and  _613
REMARK                            x       y       z     vdW  Elec       q    Type
REMARK                         _______ _______ _______ _____ _____    ______ ____
ROOT
ATOM      1  O   HOH     1      45.133  19.146  40.609  0.00  0.00    +0.000 OA
ENDROOT
TORSDOF 0
REMARK  Name = ../refined-set-2016/2ov4/2ov4_pocket.pdb
REMARK  255 active torsions:
REMARK  status: ('A' for Active; 'I' for Inactive)
REMARK    1  A    between atoms: _1  and  _3
REMARK    2  A    between atoms: _3  and  _4
REMARK    3  A    between atoms: _3  and  _6
REMARK    4  A    between atoms: _6  and  _7
REMARK    5  A    between atoms: _13  and  _15
REMARK    6  A    between atoms: _15  and  _16
REMARK    7  A    between atoms: _15  and  _18
REMARK    8  A    between atoms: _18  and  _19
REMARK    9  A    between atoms: _21  and  _23
REMARK   10  A    between atoms: _23  and  _24
REMARK   11  A    between atoms: _26  and  _28
REMARK   12  A    between atoms: _28  and  _29
REMARK   13  A    between atoms: _28  and  _31
REMARK   14  A    between atoms: _31  and  _32
REMARK   15  A    between atoms: _35  and  _37
REMARK   16  A    between atoms: _37  and  _38
REMARK   17  A    between atoms: _37  and  _40
REMARK   18  A    between atoms: _40  and  _41
REMARK   19  A    between atoms: _41  and  _42
REMARK   20  A    between atoms: _48  and  _49
REMARK   21  A    between atoms: _54  and  _56
REMARK   22  A    between atoms: _56  and  _57
REMARK   23  A    between atoms: _56  and  _59
REMARK   24  A    between atoms: _59  and  _60
REMARK   25  A    between atoms: _62  and  _64
REMARK   26  A    between atoms: _64  and  _65
REMARK   27  A    between atoms: _67  and  _69
REMARK   28  A    between atoms: _69  and  _70
REMARK   29  A    between atoms: _69  and  _72
REMARK   30  A    between atoms: _75  and  _77
REMARK   31  A    between atoms: _77  and  _78
REMARK   32  A    between atoms: _77  and  _80
REMARK   33  A    between atoms: _80  and  _81
REMARK   34  A    between atoms: _84  and  _86
REMARK   35  A    between atoms: _86  and  _87
REMARK   36  A    between atoms: _86  and  _89
REMARK   37  A    between atoms: _89  and  _90
REMARK   38  A    between atoms: _93  and  _95
REMARK   39  A    between atoms: _95  and  _96
REMARK   40  A    between atoms: _95  and  _98
REMARK   41  A    between atoms: _98  and  _99
REMARK   42  A    between atoms: _102  and  _104
REMARK   43  A    between atoms: _104  and  _105
REMARK   44  A    between atoms: _107  and  _109
REMARK   45  A    between atoms: _109  and  _110
REMARK   46  A    between atoms: _109  and  _112
REMARK   47  A    between atoms: _112  and  _113
REMARK   48  A    between atoms: _118  and  _120
REMARK   49  A    between atoms: _120  and  _121
REMARK   50  A    between atoms: _120  and  _123
REMARK   51  A    between atoms: _123  and  _124
REMARK   52  A    between atoms: _129  and  _130
REMARK   53  A    between atoms: _132  and  _134
REMARK   54  A    between atoms: _134  and  _135
REMARK   55  A    between atoms: _134  and  _137
REMARK   56  A    between atoms: _137  and  _138
REMARK   57  A    between atoms: _141  and  _143
REMARK   58  A    between atoms: _143  and  _144
REMARK   59  A    between atoms: _146  and  _148
REMARK   60  A    between atoms: _148  and  _149
REMARK   61  A    between atoms: _152  and  _154
REMARK   62  A    between atoms: _154  and  _155
REMARK   63  A    between atoms: _154  and  _157
REMARK   64  A    between atoms: _157  and  _158
REMARK   65  A    between atoms: _161  and  _163
REMARK   66  A    between atoms: _163  and  _164
REMARK   67  A    between atoms: _163  and  _166
REMARK   68  A    between atoms: _166  and  _167
REMARK   69  A    between atoms: _167  and  _168
REMARK   70  A    between atoms: _168  and  _169
REMARK   71  A    between atoms: _178  and  _180
REMARK   72  A    between atoms: _180  and  _181
REMARK   73  A    between atoms: _180  and  _183
REMARK   74  A    between atoms: _183  and  _184
REMARK   75  A    between atoms: _184  and  _185
REMARK   76  A    between atoms: _190  and  _192
REMARK   77  A    between atoms: _192  and  _193
REMARK   78  A    between atoms: _192  and  _195
REMARK   79  A    between atoms: _195  and  _196
REMARK   80  A    between atoms: _202  and  _204
REMARK   81  A    between atoms: _204  and  _205
REMARK   82  A    between atoms: _204  and  _207
REMARK   83  A    between atoms: _209  and  _211
REMARK   84  A    between atoms: _211  and  _212
REMARK   85  A    between atoms: _211  and  _214
REMARK   86  A    between atoms: _214  and  _215
REMARK   87  A    between atoms: _218  and  _220
REMARK   88  A    between atoms: _220  and  _221
REMARK   89  A    between atoms: _220  and  _223
REMARK   90  A    between atoms: _226  and  _228
REMARK   91  A    between atoms: _228  and  _229
REMARK   92  A    between atoms: _228  and  _231
REMARK   93  A    between atoms: _231  and  _232
REMARK   94  A    between atoms: _237  and  _239
REMARK   95  A    between atoms: _239  and  _240
REMARK   96  A    between atoms: _243  and  _245
REMARK   97  A    between atoms: _245  and  _246
REMARK   98  A    between atoms: _245  and  _248
REMARK   99  A    between atoms: _248  and  _249
REMARK  100  A    between atoms: _252  and  _254
REMARK  101  A    between atoms: _254  and  _255
REMARK  102  A    between atoms: _254  and  _257
REMARK  103  A    between atoms: _260  and  _262
REMARK  104  A    between atoms: _262  and  _263
REMARK  105  A    between atoms: _262  and  _265
REMARK  106  A    between atoms: _265  and  _266
REMARK  107  A    between atoms: _266  and  _267
REMARK  108  A    between atoms: _272  and  _274
REMARK  109  A    between atoms: _274  and  _275
REMARK  110  A    between atoms: _274  and  _277
REMARK  111  A    between atoms: _277  and  _278
REMARK  112  A    between atoms: _281  and  _283
REMARK  113  A    between atoms: _283  and  _284
REMARK  114  A    between atoms: _283  and  _286
REMARK  115  A    between atoms: _286  and  _287
REMARK  116  A    between atoms: _292  and  _293
REMARK  117  A    between atoms: _295  and  _297
REMARK  118  A    between atoms: _297  and  _298
REMARK  119  A    between atoms: _297  and  _300
REMARK  120  A    between atoms: _300  and  _301
REMARK  121  A    between atoms: _301  and  _302
REMARK  122  A    between atoms: _307  and  _309
REMARK  123  A    between atoms: _309  and  _310
REMARK  124  A    between atoms: _309  and  _312
REMARK  125  A    between atoms: _312  and  _313
REMARK  126  A    between atoms: _313  and  _314
REMARK  127  A    between atoms: _314  and  _315
REMARK  128  A    between atoms: _315  and  _316
REMARK  129  A    between atoms: _320  and  _322
REMARK  130  A    between atoms: _322  and  _323
REMARK  131  A    between atoms: _322  and  _325
REMARK  132  A    between atoms: _325  and  _326
REMARK  133  A    between atoms: _331  and  _332
REMARK  134  A    between atoms: _334  and  _336
REMARK  135  A    between atoms: _336  and  _337
REMARK  136  A    between atoms: _336  and  _339
REMARK  137  A    between atoms: _339  and  _340
REMARK  138  A    between atoms: _340  and  _341
REMARK  139  A    between atoms: _343  and  _345
REMARK  140  A    between atoms: _345  and  _346
REMARK  141  A    between atoms: _345  and  _348
REMARK  142  A    between atoms: _352  and  _353
REMARK  143  A    between atoms: _358  and  _360
REMARK  144  A    between atoms: _360  and  _361
REMARK  145  A    between atoms: _360  and  _363
REMARK  146  A    between atoms: _366  and  _368
REMARK  147  A    between atoms: _368  and  _369
REMARK  148  A    between atoms: _371  and  _373
REMARK  149  A    between atoms: _373  and  _374
REMARK  150  A    between atoms: _373  and  _376
REMARK  151  A    between atoms: _376  and  _377
REMARK  152  A    between atoms: _377  and  _378
REMARK  153  A    between atoms: _381  and  _383
REMARK  154  A    between atoms: _383  and  _384
REMARK  155  A    between atoms: _383  and  _386
REMARK  156  A    between atoms: _386  and  _387
REMARK  157  A    between atoms: _390  and  _392
REMARK  158  A    between atoms: _392  and  _393
REMARK  159  A    between atoms: _392  and  _395
REMARK  160  A    between atoms: _395  and  _396
REMARK  161  A    between atoms: _396  and  _397
REMARK  162  A    between atoms: _402  and  _404
REMARK  163  A    between atoms: _404  and  _405
REMARK  164  A    between atoms: _404  and  _407
REMARK  165  A    between atoms: _407  and  _408
REMARK  166  A    between atoms: _408  and  _409
REMARK  167  A    between atoms: _409  and  _410
REMARK  168  A    between atoms: _410  and  _411
REMARK  169  A    between atoms: _415  and  _417
REMARK  170  A    between atoms: _417  and  _418
REMARK  171  A    between atoms: _417  and  _420
REMARK  172  A    between atoms: _420  and  _421
REMARK  173  A    between atoms: _426  and  _428
REMARK  174  A    between atoms: _428  and  _429
REMARK  175  A    between atoms: _428  and  _431
REMARK  176  A    between atoms: _431  and  _432
REMARK  177  A    between atoms: _435  and  _437
REMARK  178  A    between atoms: _437  and  _438
REMARK  179  A    between atoms: _437  and  _440
REMARK  180  A    between atoms: _440  and  _441
REMARK  181  A    between atoms: _445  and  _446
REMARK  182  A    between atoms: _451  and  _453
REMARK  183  A    between atoms: _453  and  _454
REMARK  184  A    between atoms: _453  and  _456
REMARK  185  A    between atoms: _459  and  _461
REMARK  186  A    between atoms: _461  and  _462
REMARK  187  A    between atoms: _464  and  _466
REMARK  188  A    between atoms: _466  and  _467
REMARK  189  A    between atoms: _470  and  _472
REMARK  190  A    between atoms: _472  and  _473
REMARK  191  A    between atoms: _472  and  _475
REMARK  192  A    between atoms: _475  and  _476
REMARK  193  A    between atoms: _476  and  _477
REMARK  194  A    between atoms: _477  and  _478
REMARK  195  A    between atoms: _487  and  _489
REMARK  196  A    between atoms: _489  and  _490
REMARK  197  A    between atoms: _489  and  _492
REMARK  198  A    between atoms: _492  and  _493
REMARK  199  A    between atoms: _496  and  _498
REMARK  200  A    between atoms: _498  and  _499
REMARK  201  A    between atoms: _498  and  _501
REMARK  202  A    between atoms: _501  and  _502
REMARK  203  A    between atoms: _502  and  _503
REMARK  204  A    between atoms: _505  and  _507
REMARK  205  A    between atoms: _507  and  _508
REMARK  206  A    between atoms: _507  and  _510
REMARK  207  A    between atoms: _510  and  _511
REMARK  208  A    between atoms: _513  and  _515
REMARK  209  A    between atoms: _515  and  _516
REMARK  210  A    between atoms: _515  and  _518
REMARK  211  A    between atoms: _518  and  _519
REMARK  212  A    between atoms: _519  and  _520
REMARK  213  A    between atoms: _520  and  _521
REMARK  214  A    between atoms: _521  and  _522
REMARK  215  A    between atoms: _526  and  _528
REMARK  216  A    between atoms: _528  and  _529
REMARK  217  A    between atoms: _528  and  _531
REMARK  218  A    between atoms: _531  and  _532
REMARK  219  A    between atoms: _532  and  _533
REMARK  220  A    between atoms: _533  and  _534
REMARK  221  A    between atoms: _534  and  _535
REMARK  222  A    between atoms: _539  and  _541
REMARK  223  A    between atoms: _541  and  _542
REMARK  224  A    between atoms: _541  and  _544
REMARK  225  A    between atoms: _544  and  _545
REMARK  226  A    between atoms: _545  and  _546
REMARK  227  A    between atoms: _548  and  _550
REMARK  228  A    between atoms: _550  and  _551
REMARK  229  A    between atoms: _550  and  _553
REMARK  230  A    between atoms: _553  and  _554
REMARK  231  A    between atoms: _556  and  _558
REMARK  232  A    between atoms: _558  and  _559
REMARK  233  A    between atoms: _558  and  _561
REMARK  234  A    between atoms: _561  and  _562
REMARK  235  A    between atoms: _562  and  _563
REMARK  236  A    between atoms: _563  and  _564
REMARK  237  A    between atoms: _564  and  _565
REMARK  238  A    between atoms: _569  and  _571
REMARK  239  A    between atoms: _571  and  _572
REMARK  240  A    between atoms: _571  and  _574
REMARK  241  A    between atoms: _574  and  _575
REMARK  242  A    between atoms: _577  and  _579
REMARK  243  A    between atoms: _579  and  _580
REMARK  244  A    between atoms: _579  and  _582
REMARK  245  A    between atoms: _582  and  _583
REMARK  246  A    between atoms: _587  and  _588
REMARK  247  A    between atoms: _593  and  _595
REMARK  248  A    between atoms: _595  and  _596
REMARK  249  A    between atoms: _595  and  _598
REMARK  250  A    between atoms: _598  and  _599
REMARK  251  A    between atoms: _604  and  _605
REMARK  252  A    between atoms: _607  and  _609
REMARK  253  A    between atoms: _609  and  _610
REMARK  254  A    between atoms: _609  and  _612
REMARK  255  A    between atoms: _612  and  _613
REMARK                            x       y       z     vdW  Elec       q    Type
REMARK                         _______ _______ _______ _____ _____    ______ ____
ROOT
ATOM      1  O   HOH     1      52.338  31.383  35.663  0.00  0.00    +0.000 OA
ENDROOT
TORSDOF 0
