REMARK  Name = ../refined-set-2016/4m0e/4m0e_pocket.pdb
REMARK  147 active torsions:
REMARK  status: ('A' for Active; 'I' for Inactive)
REMARK    1  A    between atoms: _1  and  _3
REMARK    2  A    between atoms: _3  and  _4
REMARK    3  A    between atoms: _3  and  _6
REMARK    4  A    between atoms: _6  and  _7
REMARK    5  A    between atoms: _12  and  _13
REMARK    6  A    between atoms: _15  and  _17
REMARK    7  A    between atoms: _17  and  _18
REMARK    8  A    between atoms: _17  and  _20
REMARK    9  A    between atoms: _23  and  _25
REMARK   10  A    between atoms: _25  and  _26
REMARK   11  A    between atoms: _25  and  _28
REMARK   12  A    between atoms: _28  and  _29
REMARK   13  A    between atoms: _32  and  _34
REMARK   14  A    between atoms: _34  and  _35
REMARK   15  A    between atoms: _34  and  _37
REMARK   16  A    between atoms: _37  and  _38
REMARK   17  A    between atoms: _41  and  _43
REMARK   18  A    between atoms: _43  and  _44
REMARK   19  A    between atoms: _43  and  _46
REMARK   20  A    between atoms: _46  and  _47
REMARK   21  A    between atoms: _50  and  _52
REMARK   22  A    between atoms: _52  and  _53
REMARK   23  A    between atoms: _52  and  _55
REMARK   24  A    between atoms: _55  and  _56
REMARK   25  A    between atoms: _59  and  _61
REMARK   26  A    between atoms: _61  and  _62
REMARK   27  A    between atoms: _61  and  _64
REMARK   28  A    between atoms: _64  and  _65
REMARK   29  A    between atoms: _75  and  _77
REMARK   30  A    between atoms: _77  and  _78
REMARK   31  A    between atoms: _80  and  _82
REMARK   32  A    between atoms: _82  and  _83
REMARK   33  A    between atoms: _85  and  _87
REMARK   34  A    between atoms: _87  and  _88
REMARK   35  A    between atoms: _87  and  _90
REMARK   36  A    between atoms: _90  and  _91
REMARK   37  A    between atoms: _96  and  _97
REMARK   38  A    between atoms: _99  and  _101
REMARK   39  A    between atoms: _101  and  _102
REMARK   40  A    between atoms: _101  and  _104
REMARK   41  A    between atoms: _104  and  _105
REMARK   42  A    between atoms: _107  and  _109
REMARK   43  A    between atoms: _109  and  _110
REMARK   44  A    between atoms: _109  and  _112
REMARK   45  A    between atoms: _112  and  _113
REMARK   46  A    between atoms: _115  and  _117
REMARK   47  A    between atoms: _117  and  _118
REMARK   48  A    between atoms: _117  and  _120
REMARK   49  A    between atoms: _123  and  _125
REMARK   50  A    between atoms: _125  and  _126
REMARK   51  A    between atoms: _125  and  _128
REMARK   52  A    between atoms: _128  and  _129
REMARK   53  A    between atoms: _134  and  _136
REMARK   54  A    between atoms: _136  and  _137
REMARK   55  A    between atoms: _136  and  _139
REMARK   56  A    between atoms: _139  and  _140
REMARK   57  A    between atoms: _140  and  _141
REMARK   58  A    between atoms: _144  and  _146
REMARK   59  A    between atoms: _146  and  _147
REMARK   60  A    between atoms: _146  and  _149
REMARK   61  A    between atoms: _149  and  _150
REMARK   62  A    between atoms: _160  and  _162
REMARK   63  A    between atoms: _162  and  _163
REMARK   64  A    between atoms: _162  and  _165
REMARK   65  A    between atoms: _165  and  _166
REMARK   66  A    between atoms: _171  and  _173
REMARK   67  A    between atoms: _173  and  _174
REMARK   68  A    between atoms: _173  and  _176
REMARK   69  A    between atoms: _176  and  _177
REMARK   70  A    between atoms: _180  and  _182
REMARK   71  A    between atoms: _182  and  _183
REMARK   72  A    between atoms: _182  and  _185
REMARK   73  A    between atoms: _185  and  _186
REMARK   74  A    between atoms: _186  and  _187
REMARK   75  A    between atoms: _192  and  _194
REMARK   76  A    between atoms: _194  and  _195
REMARK   77  A    between atoms: _194  and  _197
REMARK   78  A    between atoms: _197  and  _198
REMARK   79  A    between atoms: _198  and  _199
REMARK   80  A    between atoms: _202  and  _204
REMARK   81  A    between atoms: _204  and  _205
REMARK   82  A    between atoms: _204  and  _207
REMARK   83  A    between atoms: _207  and  _208
REMARK   84  A    between atoms: _210  and  _212
REMARK   85  A    between atoms: _212  and  _213
REMARK   86  A    between atoms: _212  and  _215
REMARK   87  A    between atoms: _218  and  _220
REMARK   88  A    between atoms: _220  and  _221
REMARK   89  A    between atoms: _220  and  _223
REMARK   90  A    between atoms: _223  and  _224
REMARK   91  A    between atoms: _230  and  _232
REMARK   92  A    between atoms: _232  and  _233
REMARK   93  A    between atoms: _232  and  _235
REMARK   94  A    between atoms: _235  and  _236
REMARK   95  A    between atoms: _236  and  _237
REMARK   96  A    between atoms: _237  and  _238
REMARK   97  A    between atoms: _247  and  _249
REMARK   98  A    between atoms: _249  and  _250
REMARK   99  A    between atoms: _249  and  _252
REMARK  100  A    between atoms: _252  and  _253
REMARK  101  A    between atoms: _259  and  _261
REMARK  102  A    between atoms: _261  and  _262
REMARK  103  A    between atoms: _261  and  _264
REMARK  104  A    between atoms: _264  and  _265
REMARK  105  A    between atoms: _267  and  _269
REMARK  106  A    between atoms: _269  and  _270
REMARK  107  A    between atoms: _269  and  _272
REMARK  108  A    between atoms: _272  and  _273
REMARK  109  A    between atoms: _278  and  _279
REMARK  110  A    between atoms: _281  and  _283
REMARK  111  A    between atoms: _283  and  _284
REMARK  112  A    between atoms: _283  and  _286
REMARK  113  A    between atoms: _286  and  _287
REMARK  114  A    between atoms: _293  and  _295
REMARK  115  A    between atoms: _295  and  _296
REMARK  116  A    between atoms: _295  and  _298
REMARK  117  A    between atoms: _298  and  _299
REMARK  118  A    between atoms: _302  and  _304
REMARK  119  A    between atoms: _304  and  _305
REMARK  120  A    between atoms: _304  and  _307
REMARK  121  A    between atoms: _310  and  _312
REMARK  122  A    between atoms: _312  and  _313
REMARK  123  A    between atoms: _312  and  _315
REMARK  124  A    between atoms: _315  and  _316
REMARK  125  A    between atoms: _321  and  _322
REMARK  126  A    between atoms: _324  and  _326
REMARK  127  A    between atoms: _326  and  _327
REMARK  128  A    between atoms: _329  and  _331
REMARK  129  A    between atoms: _331  and  _332
REMARK  130  A    between atoms: _335  and  _337
REMARK  131  A    between atoms: _337  and  _338
REMARK  132  A    between atoms: _337  and  _340
REMARK  133  A    between atoms: _343  and  _345
REMARK  134  A    between atoms: _345  and  _346
REMARK  135  A    between atoms: _345  and  _348
REMARK  136  A    between atoms: _351  and  _353
REMARK  137  A    between atoms: _353  and  _354
REMARK  138  A    between atoms: _353  and  _356
REMARK  139  A    between atoms: _356  and  _357
REMARK  140  A    between atoms: _362  and  _364
REMARK  141  A    between atoms: _364  and  _365
REMARK  142  A    between atoms: _364  and  _367
REMARK  143  A    between atoms: _367  and  _368
REMARK  144  A    between atoms: _378  and  _380
REMARK  145  A    between atoms: _380  and  _381
REMARK  146  A    between atoms: _380  and  _383
REMARK  147  A    between atoms: _383  and  _384
REMARK                            x       y       z     vdW  Elec       q    Type
REMARK                         _______ _______ _______ _____ _____    ______ ____
ROOT
ATOM      1  CA  ASP A   3     -19.472 -43.141  33.408  0.00  0.00    +0.160 C 
ENDROOT
BRANCH   1   3
ATOM      2  C   VAL A   2     -20.033 -41.097  34.542  0.00  0.00    +0.241 C 
ATOM      3  N   ASP A   3     -19.186 -42.101  34.375  0.00  0.00    -0.297 N 
ATOM      4  H   ASP A   3     -18.313 -42.143  34.939  0.00  0.00    +0.150 HD
ATOM      5  O   VAL A   2     -21.124 -41.058  33.987  0.00  0.00    -0.273 OA
BRANCH   2   6
ATOM      6  CA  VAL A   2     -19.592 -39.968  35.464  0.00  0.00    +0.148 C 
BRANCH   6   8
ATOM      7  C   TYR A   1     -18.649 -37.987  34.410  0.00  0.00    +0.239 C 
ATOM      8  N   VAL A   2     -19.724 -38.696  34.755  0.00  0.00    -0.297 N 
ATOM      9  H   VAL A   2     -20.671 -38.339  34.516  0.00  0.00    +0.150 HD
ATOM     10  O   TYR A   1     -17.499 -38.334  34.679  0.00  0.00    -0.274 OA
BRANCH   7  11
ATOM     11  CA  TYR A   1     -18.902 -36.730  33.624  0.00  0.00    +0.149 C 
BRANCH  11  12
ATOM     12  N   TYR A   1     -18.006 -35.659  34.023  0.00  0.00    -0.238 NA
ATOM     13  H   TYR A   1     -17.373 -35.260  33.300  0.00  0.00    +0.142 HD
ENDBRANCH  11  12
BRANCH  11  14
ATOM     14  CB  TYR A   1     -18.684 -37.010  32.131  0.00  0.00    +0.053 C 
BRANCH  14  15
ATOM     15  CG  TYR A   1     -19.476 -38.148  31.570  0.00  0.00    -0.020 A 
ATOM     16  CD2 TYR A   1     -18.870 -39.381  31.304  0.00  0.00    -0.001 A 
ATOM     17  CE2 TYR A   1     -19.596 -40.442  30.761  0.00  0.00    +0.036 A 
ATOM     18  CZ  TYR A   1     -20.947 -40.269  30.483  0.00  0.00    +0.134 A 
ATOM     19  CE1 TYR A   1     -21.563 -39.061  30.746  0.00  0.00    +0.036 A 
ATOM     20  CD1 TYR A   1     -20.829 -38.001  31.280  0.00  0.00    -0.001 A 
BRANCH  18  21
ATOM     21  OH  TYR A   1     -21.683 -41.316  29.953  0.00  0.00    -0.506 OA
ATOM     22  HH  TYR A   1     -22.619 -41.024  29.817  0.00  0.00    +0.292 HD
ENDBRANCH  18  21
ENDBRANCH  14  15
ENDBRANCH  11  14
ENDBRANCH   7  11
ENDBRANCH   6   8
BRANCH   6  23
ATOM     23  CB  VAL A   2     -20.441 -39.995  36.760  0.00  0.00    +0.027 C 
ATOM     24  CG2 VAL A   2     -19.957 -38.905  37.733  0.00  0.00    +0.002 C 
ATOM     25  CG1 VAL A   2     -20.374 -41.381  37.420  0.00  0.00    +0.002 C 
ENDBRANCH   6  23
ENDBRANCH   2   6
ENDBRANCH   1   3
BRANCH   1  26
ATOM     26  C   ASP A   3     -20.657 -44.001  33.860  0.00  0.00    +0.241 C 
ATOM     27  O   ASP A   3     -20.729 -44.383  35.027  0.00  0.00    -0.273 OA
ATOM     28  N   THR A   4     -21.567 -44.294  32.930  0.00  0.00    -0.295 N 
ATOM     29  H   THR A   4     -21.410 -43.957  31.959  0.00  0.00    +0.150 HD
BRANCH  28  30
ATOM     30  CA  THR A   4     -22.781 -45.071  33.216  0.00  0.00    +0.176 C 
BRANCH  30  31
ATOM     31  C   THR A   4     -22.927 -46.324  32.331  0.00  0.00    +0.243 C 
ATOM     32  O   THR A   4     -23.974 -46.961  32.319  0.00  0.00    -0.273 OA
ATOM     33  N   LEU A   5     -21.883 -46.695  31.602  0.00  0.00    -0.298 N 
ATOM     34  H   LEU A   5     -20.973 -46.202  31.708  0.00  0.00    +0.150 HD
BRANCH  33  35
ATOM     35  CA  LEU A   5     -22.011 -47.798  30.649  0.00  0.00    +0.137 C 
BRANCH  35  36
ATOM     36  C   LEU A   5     -22.387 -49.092  31.349  0.00  0.00    +0.227 C 
ATOM     37  O   LEU A   5     -23.294 -49.781  30.900  0.00  0.00    -0.286 OA
ENDBRANCH  35  36
BRANCH  35  38
ATOM     38  CB  LEU A   5     -20.732 -48.001  29.828  0.00  0.00    +0.028 C 
BRANCH  38  39
ATOM     39  CG  LEU A   5     -20.805 -49.089  28.750  0.00  0.00    +0.002 C 
ATOM     40  CD2 LEU A   5     -19.508 -49.155  27.977  0.00  0.00    +0.000 C 
ATOM     41  CD1 LEU A   5     -21.951 -48.809  27.789  0.00  0.00    +0.000 C 
ENDBRANCH  38  39
ENDBRANCH  35  38
ENDBRANCH  33  35
ENDBRANCH  30  31
BRANCH  30  42
ATOM     42  CB  THR A   4     -24.066 -44.214  33.053  0.00  0.00    +0.137 C 
ATOM     43  CG2 THR A   4     -24.041 -43.006  33.959  0.00  0.00    +0.034 C 
BRANCH  42  44
ATOM     44  OG1 THR A   4     -24.184 -43.757  31.709  0.00  0.00    -0.382 OA
ATOM     45  HG1 THR A   4     -24.233 -44.536  31.100  0.00  0.00    +0.210 HD
ENDBRANCH  42  44
ENDBRANCH  30  42
ENDBRANCH  28  30
ENDBRANCH   1  26
BRANCH   1  46
ATOM     46  CB  ASP A   3     -18.270 -44.026  33.230  0.00  0.00    +0.143 C 
BRANCH  46  47
ATOM     47  CG  ASP A   3     -18.338 -44.821  31.937  0.00  0.00    +0.367 C 
ATOM     48  OD2 ASP A   3     -18.793 -45.977  31.971  0.00  0.00    -0.246 OA
ATOM     49  OD1 ASP A   3     -17.960 -44.256  30.887  0.00  0.00    -0.246 OA
ENDBRANCH  46  47
ENDBRANCH   1  46
TORSDOF 20
REMARK  Name = ../refined-set-2016/4m0e/4m0e_pocket.pdb
REMARK  147 active torsions:
REMARK  status: ('A' for Active; 'I' for Inactive)
REMARK    1  A    between atoms: _1  and  _3
REMARK    2  A    between atoms: _3  and  _4
REMARK    3  A    between atoms: _3  and  _6
REMARK    4  A    between atoms: _6  and  _7
REMARK    5  A    between atoms: _12  and  _13
REMARK    6  A    between atoms: _15  and  _17
REMARK    7  A    between atoms: _17  and  _18
REMARK    8  A    between atoms: _17  and  _20
REMARK    9  A    between atoms: _23  and  _25
REMARK   10  A    between atoms: _25  and  _26
REMARK   11  A    between atoms: _25  and  _28
REMARK   12  A    between atoms: _28  and  _29
REMARK   13  A    between atoms: _32  and  _34
REMARK   14  A    between atoms: _34  and  _35
REMARK   15  A    between atoms: _34  and  _37
REMARK   16  A    between atoms: _37  and  _38
REMARK   17  A    between atoms: _41  and  _43
REMARK   18  A    between atoms: _43  and  _44
REMARK   19  A    between atoms: _43  and  _46
REMARK   20  A    between atoms: _46  and  _47
REMARK   21  A    between atoms: _50  and  _52
REMARK   22  A    between atoms: _52  and  _53
REMARK   23  A    between atoms: _52  and  _55
REMARK   24  A    between atoms: _55  and  _56
REMARK   25  A    between atoms: _59  and  _61
REMARK   26  A    between atoms: _61  and  _62
REMARK   27  A    between atoms: _61  and  _64
REMARK   28  A    between atoms: _64  and  _65
REMARK   29  A    between atoms: _75  and  _77
REMARK   30  A    between atoms: _77  and  _78
REMARK   31  A    between atoms: _80  and  _82
REMARK   32  A    between atoms: _82  and  _83
REMARK   33  A    between atoms: _85  and  _87
REMARK   34  A    between atoms: _87  and  _88
REMARK   35  A    between atoms: _87  and  _90
REMARK   36  A    between atoms: _90  and  _91
REMARK   37  A    between atoms: _96  and  _97
REMARK   38  A    between atoms: _99  and  _101
REMARK   39  A    between atoms: _101  and  _102
REMARK   40  A    between atoms: _101  and  _104
REMARK   41  A    between atoms: _104  and  _105
REMARK   42  A    between atoms: _107  and  _109
REMARK   43  A    between atoms: _109  and  _110
REMARK   44  A    between atoms: _109  and  _112
REMARK   45  A    between atoms: _112  and  _113
REMARK   46  A    between atoms: _115  and  _117
REMARK   47  A    between atoms: _117  and  _118
REMARK   48  A    between atoms: _117  and  _120
REMARK   49  A    between atoms: _123  and  _125
REMARK   50  A    between atoms: _125  and  _126
REMARK   51  A    between atoms: _125  and  _128
REMARK   52  A    between atoms: _128  and  _129
REMARK   53  A    between atoms: _134  and  _136
REMARK   54  A    between atoms: _136  and  _137
REMARK   55  A    between atoms: _136  and  _139
REMARK   56  A    between atoms: _139  and  _140
REMARK   57  A    between atoms: _140  and  _141
REMARK   58  A    between atoms: _144  and  _146
REMARK   59  A    between atoms: _146  and  _147
REMARK   60  A    between atoms: _146  and  _149
REMARK   61  A    between atoms: _149  and  _150
REMARK   62  A    between atoms: _160  and  _162
REMARK   63  A    between atoms: _162  and  _163
REMARK   64  A    between atoms: _162  and  _165
REMARK   65  A    between atoms: _165  and  _166
REMARK   66  A    between atoms: _171  and  _173
REMARK   67  A    between atoms: _173  and  _174
REMARK   68  A    between atoms: _173  and  _176
REMARK   69  A    between atoms: _176  and  _177
REMARK   70  A    between atoms: _180  and  _182
REMARK   71  A    between atoms: _182  and  _183
REMARK   72  A    between atoms: _182  and  _185
REMARK   73  A    between atoms: _185  and  _186
REMARK   74  A    between atoms: _186  and  _187
REMARK   75  A    between atoms: _192  and  _194
REMARK   76  A    between atoms: _194  and  _195
REMARK   77  A    between atoms: _194  and  _197
REMARK   78  A    between atoms: _197  and  _198
REMARK   79  A    between atoms: _198  and  _199
REMARK   80  A    between atoms: _202  and  _204
REMARK   81  A    between atoms: _204  and  _205
REMARK   82  A    between atoms: _204  and  _207
REMARK   83  A    between atoms: _207  and  _208
REMARK   84  A    between atoms: _210  and  _212
REMARK   85  A    between atoms: _212  and  _213
REMARK   86  A    between atoms: _212  and  _215
REMARK   87  A    between atoms: _218  and  _220
REMARK   88  A    between atoms: _220  and  _221
REMARK   89  A    between atoms: _220  and  _223
REMARK   90  A    between atoms: _223  and  _224
REMARK   91  A    between atoms: _230  and  _232
REMARK   92  A    between atoms: _232  and  _233
REMARK   93  A    between atoms: _232  and  _235
REMARK   94  A    between atoms: _235  and  _236
REMARK   95  A    between atoms: _236  and  _237
REMARK   96  A    between atoms: _237  and  _238
REMARK   97  A    between atoms: _247  and  _249
REMARK   98  A    between atoms: _249  and  _250
REMARK   99  A    between atoms: _249  and  _252
REMARK  100  A    between atoms: _252  and  _253
REMARK  101  A    between atoms: _259  and  _261
REMARK  102  A    between atoms: _261  and  _262
REMARK  103  A    between atoms: _261  and  _264
REMARK  104  A    between atoms: _264  and  _265
REMARK  105  A    between atoms: _267  and  _269
REMARK  106  A    between atoms: _269  and  _270
REMARK  107  A    between atoms: _269  and  _272
REMARK  108  A    between atoms: _272  and  _273
REMARK  109  A    between atoms: _278  and  _279
REMARK  110  A    between atoms: _281  and  _283
REMARK  111  A    between atoms: _283  and  _284
REMARK  112  A    between atoms: _283  and  _286
REMARK  113  A    between atoms: _286  and  _287
REMARK  114  A    between atoms: _293  and  _295
REMARK  115  A    between atoms: _295  and  _296
REMARK  116  A    between atoms: _295  and  _298
REMARK  117  A    between atoms: _298  and  _299
REMARK  118  A    between atoms: _302  and  _304
REMARK  119  A    between atoms: _304  and  _305
REMARK  120  A    between atoms: _304  and  _307
REMARK  121  A    between atoms: _310  and  _312
REMARK  122  A    between atoms: _312  and  _313
REMARK  123  A    between atoms: _312  and  _315
REMARK  124  A    between atoms: _315  and  _316
REMARK  125  A    between atoms: _321  and  _322
REMARK  126  A    between atoms: _324  and  _326
REMARK  127  A    between atoms: _326  and  _327
REMARK  128  A    between atoms: _329  and  _331
REMARK  129  A    between atoms: _331  and  _332
REMARK  130  A    between atoms: _335  and  _337
REMARK  131  A    between atoms: _337  and  _338
REMARK  132  A    between atoms: _337  and  _340
REMARK  133  A    between atoms: _343  and  _345
REMARK  134  A    between atoms: _345  and  _346
REMARK  135  A    between atoms: _345  and  _348
REMARK  136  A    between atoms: _351  and  _353
REMARK  137  A    between atoms: _353  and  _354
REMARK  138  A    between atoms: _353  and  _356
REMARK  139  A    between atoms: _356  and  _357
REMARK  140  A    between atoms: _362  and  _364
REMARK  141  A    between atoms: _364  and  _365
REMARK  142  A    between atoms: _364  and  _367
REMARK  143  A    between atoms: _367  and  _368
REMARK  144  A    between atoms: _378  and  _380
REMARK  145  A    between atoms: _380  and  _381
REMARK  146  A    between atoms: _380  and  _383
REMARK  147  A    between atoms: _383  and  _384
REMARK                            x       y       z     vdW  Elec       q    Type
REMARK                         _______ _______ _______ _____ _____    ______ ____
ROOT
ATOM      1  CA  THR A   1     -15.544 -48.944  34.859  0.00  0.00    +0.160 C 
ENDROOT
BRANCH   1   2
ATOM      2  N   THR A   1     -15.264 -50.341  35.150  0.00  0.00    -0.237 NA
ATOM      3  H   THR A   1     -16.027 -50.974  35.465  0.00  0.00    +0.142 HD
ENDBRANCH   1   2
BRANCH   1   4
ATOM      4  C   THR A   1     -15.540 -48.098  36.149  0.00  0.00    +0.227 C 
ATOM      5  O   THR A   1     -15.007 -46.976  36.171  0.00  0.00    -0.287 OA
ENDBRANCH   1   4
BRANCH   1   6
ATOM      6  CB  THR A   1     -16.881 -48.746  34.149  0.00  0.00    +0.134 C 
ATOM      7  CG2 THR A   1     -16.829 -49.314  32.718  0.00  0.00    +0.034 C 
BRANCH   6   8
ATOM      8  OG1 THR A   1     -17.912 -49.390  34.914  0.00  0.00    -0.383 OA
ATOM      9  HG1 THR A   1     -18.783 -49.267  34.461  0.00  0.00    +0.210 HD
ENDBRANCH   6   8
ENDBRANCH   1   6
TORSDOF 4
REMARK  Name = ../refined-set-2016/4m0e/4m0e_pocket.pdb
REMARK  147 active torsions:
REMARK  status: ('A' for Active; 'I' for Inactive)
REMARK    1  A    between atoms: _1  and  _3
REMARK    2  A    between atoms: _3  and  _4
REMARK    3  A    between atoms: _3  and  _6
REMARK    4  A    between atoms: _6  and  _7
REMARK    5  A    between atoms: _12  and  _13
REMARK    6  A    between atoms: _15  and  _17
REMARK    7  A    between atoms: _17  and  _18
REMARK    8  A    between atoms: _17  and  _20
REMARK    9  A    between atoms: _23  and  _25
REMARK   10  A    between atoms: _25  and  _26
REMARK   11  A    between atoms: _25  and  _28
REMARK   12  A    between atoms: _28  and  _29
REMARK   13  A    between atoms: _32  and  _34
REMARK   14  A    between atoms: _34  and  _35
REMARK   15  A    between atoms: _34  and  _37
REMARK   16  A    between atoms: _37  and  _38
REMARK   17  A    between atoms: _41  and  _43
REMARK   18  A    between atoms: _43  and  _44
REMARK   19  A    between atoms: _43  and  _46
REMARK   20  A    between atoms: _46  and  _47
REMARK   21  A    between atoms: _50  and  _52
REMARK   22  A    between atoms: _52  and  _53
REMARK   23  A    between atoms: _52  and  _55
REMARK   24  A    between atoms: _55  and  _56
REMARK   25  A    between atoms: _59  and  _61
REMARK   26  A    between atoms: _61  and  _62
REMARK   27  A    between atoms: _61  and  _64
REMARK   28  A    between atoms: _64  and  _65
REMARK   29  A    between atoms: _75  and  _77
REMARK   30  A    between atoms: _77  and  _78
REMARK   31  A    between atoms: _80  and  _82
REMARK   32  A    between atoms: _82  and  _83
REMARK   33  A    between atoms: _85  and  _87
REMARK   34  A    between atoms: _87  and  _88
REMARK   35  A    between atoms: _87  and  _90
REMARK   36  A    between atoms: _90  and  _91
REMARK   37  A    between atoms: _96  and  _97
REMARK   38  A    between atoms: _99  and  _101
REMARK   39  A    between atoms: _101  and  _102
REMARK   40  A    between atoms: _101  and  _104
REMARK   41  A    between atoms: _104  and  _105
REMARK   42  A    between atoms: _107  and  _109
REMARK   43  A    between atoms: _109  and  _110
REMARK   44  A    between atoms: _109  and  _112
REMARK   45  A    between atoms: _112  and  _113
REMARK   46  A    between atoms: _115  and  _117
REMARK   47  A    between atoms: _117  and  _118
REMARK   48  A    between atoms: _117  and  _120
REMARK   49  A    between atoms: _123  and  _125
REMARK   50  A    between atoms: _125  and  _126
REMARK   51  A    between atoms: _125  and  _128
REMARK   52  A    between atoms: _128  and  _129
REMARK   53  A    between atoms: _134  and  _136
REMARK   54  A    between atoms: _136  and  _137
REMARK   55  A    between atoms: _136  and  _139
REMARK   56  A    between atoms: _139  and  _140
REMARK   57  A    between atoms: _140  and  _141
REMARK   58  A    between atoms: _144  and  _146
REMARK   59  A    between atoms: _146  and  _147
REMARK   60  A    between atoms: _146  and  _149
REMARK   61  A    between atoms: _149  and  _150
REMARK   62  A    between atoms: _160  and  _162
REMARK   63  A    between atoms: _162  and  _163
REMARK   64  A    between atoms: _162  and  _165
REMARK   65  A    between atoms: _165  and  _166
REMARK   66  A    between atoms: _171  and  _173
REMARK   67  A    between atoms: _173  and  _174
REMARK   68  A    between atoms: _173  and  _176
REMARK   69  A    between atoms: _176  and  _177
REMARK   70  A    between atoms: _180  and  _182
REMARK   71  A    between atoms: _182  and  _183
REMARK   72  A    between atoms: _182  and  _185
REMARK   73  A    between atoms: _185  and  _186
REMARK   74  A    between atoms: _186  and  _187
REMARK   75  A    between atoms: _192  and  _194
REMARK   76  A    between atoms: _194  and  _195
REMARK   77  A    between atoms: _194  and  _197
REMARK   78  A    between atoms: _197  and  _198
REMARK   79  A    between atoms: _198  and  _199
REMARK   80  A    between atoms: _202  and  _204
REMARK   81  A    between atoms: _204  and  _205
REMARK   82  A    between atoms: _204  and  _207
REMARK   83  A    between atoms: _207  and  _208
REMARK   84  A    between atoms: _210  and  _212
REMARK   85  A    between atoms: _212  and  _213
REMARK   86  A    between atoms: _212  and  _215
REMARK   87  A    between atoms: _218  and  _220
REMARK   88  A    between atoms: _220  and  _221
REMARK   89  A    between atoms: _220  and  _223
REMARK   90  A    between atoms: _223  and  _224
REMARK   91  A    between atoms: _230  and  _232
REMARK   92  A    between atoms: _232  and  _233
REMARK   93  A    between atoms: _232  and  _235
REMARK   94  A    between atoms: _235  and  _236
REMARK   95  A    between atoms: _236  and  _237
REMARK   96  A    between atoms: _237  and  _238
REMARK   97  A    between atoms: _247  and  _249
REMARK   98  A    between atoms: _249  and  _250
REMARK   99  A    between atoms: _249  and  _252
REMARK  100  A    between atoms: _252  and  _253
REMARK  101  A    between atoms: _259  and  _261
REMARK  102  A    between atoms: _261  and  _262
REMARK  103  A    between atoms: _261  and  _264
REMARK  104  A    between atoms: _264  and  _265
REMARK  105  A    between atoms: _267  and  _269
REMARK  106  A    between atoms: _269  and  _270
REMARK  107  A    between atoms: _269  and  _272
REMARK  108  A    between atoms: _272  and  _273
REMARK  109  A    between atoms: _278  and  _279
REMARK  110  A    between atoms: _281  and  _283
REMARK  111  A    between atoms: _283  and  _284
REMARK  112  A    between atoms: _283  and  _286
REMARK  113  A    between atoms: _286  and  _287
REMARK  114  A    between atoms: _293  and  _295
REMARK  115  A    between atoms: _295  and  _296
REMARK  116  A    between atoms: _295  and  _298
REMARK  117  A    between atoms: _298  and  _299
REMARK  118  A    between atoms: _302  and  _304
REMARK  119  A    between atoms: _304  and  _305
REMARK  120  A    between atoms: _304  and  _307
REMARK  121  A    between atoms: _310  and  _312
REMARK  122  A    between atoms: _312  and  _313
REMARK  123  A    between atoms: _312  and  _315
REMARK  124  A    between atoms: _315  and  _316
REMARK  125  A    between atoms: _321  and  _322
REMARK  126  A    between atoms: _324  and  _326
REMARK  127  A    between atoms: _326  and  _327
REMARK  128  A    between atoms: _329  and  _331
REMARK  129  A    between atoms: _331  and  _332
REMARK  130  A    between atoms: _335  and  _337
REMARK  131  A    between atoms: _337  and  _338
REMARK  132  A    between atoms: _337  and  _340
REMARK  133  A    between atoms: _343  and  _345
REMARK  134  A    between atoms: _345  and  _346
REMARK  135  A    between atoms: _345  and  _348
REMARK  136  A    between atoms: _351  and  _353
REMARK  137  A    between atoms: _353  and  _354
REMARK  138  A    between atoms: _353  and  _356
REMARK  139  A    between atoms: _356  and  _357
REMARK  140  A    between atoms: _362  and  _364
REMARK  141  A    between atoms: _364  and  _365
REMARK  142  A    between atoms: _364  and  _367
REMARK  143  A    between atoms: _367  and  _368
REMARK  144  A    between atoms: _378  and  _380
REMARK  145  A    between atoms: _380  and  _381
REMARK  146  A    between atoms: _380  and  _383
REMARK  147  A    between atoms: _383  and  _384
REMARK                            x       y       z     vdW  Elec       q    Type
REMARK                         _______ _______ _______ _____ _____    ______ ____
ROOT
ATOM      1  CG  TRP A   1     -11.200 -46.195  35.051  0.00  0.00    -0.002 A 
ATOM      2  CD2 TRP A   1      -9.783 -46.389  35.200  0.00  0.00    +0.013 A 
ATOM      3  CE3 TRP A   1      -8.742 -45.599  35.724  0.00  0.00    +0.001 A 
ATOM      4  CZ3 TRP A   1      -7.456 -46.092  35.696  0.00  0.00    +0.000 A 
ATOM      5  CH2 TRP A   1      -7.169 -47.364  35.136  0.00  0.00    +0.001 A 
ATOM      6  CZ2 TRP A   1      -8.167 -48.157  34.606  0.00  0.00    +0.017 A 
ATOM      7  CE2 TRP A   1      -9.470 -47.660  34.646  0.00  0.00    +0.056 A 
ATOM      8  NE1 TRP A   1     -10.638 -48.213  34.178  0.00  0.00    -0.352 N 
ATOM      9  HE1 TRP A   1     -10.726 -49.138  33.710  0.00  0.00    +0.166 HD
ATOM     10  CD1 TRP A   1     -11.680 -47.335  34.432  0.00  0.00    +0.068 A 
ENDROOT
BRANCH   1  11
ATOM     11  CB  TRP A   1     -12.003 -44.993  35.491  0.00  0.00    +0.053 C 
BRANCH  11  12
ATOM     12  CA  TRP A   1     -12.099 -44.882  37.028  0.00  0.00    +0.137 C 
BRANCH  12  13
ATOM     13  N   TRP A   1     -12.550 -46.140  37.632  0.00  0.00    -0.239 NA
ATOM     14  H   TRP A   1     -13.342 -46.656  37.199  0.00  0.00    +0.142 HD
ENDBRANCH  12  13
BRANCH  12  15
ATOM     15  C   TRP A   1     -13.007 -43.715  37.385  0.00  0.00    +0.224 C 
ATOM     16  O   TRP A   1     -12.677 -42.572  37.115  0.00  0.00    -0.287 OA
ENDBRANCH  12  15
ENDBRANCH  11  12
ENDBRANCH   1  11
TORSDOF 4
REMARK  Name = ../refined-set-2016/4m0e/4m0e_pocket.pdb
REMARK  147 active torsions:
REMARK  status: ('A' for Active; 'I' for Inactive)
REMARK    1  A    between atoms: _1  and  _3
REMARK    2  A    between atoms: _3  and  _4
REMARK    3  A    between atoms: _3  and  _6
REMARK    4  A    between atoms: _6  and  _7
REMARK    5  A    between atoms: _12  and  _13
REMARK    6  A    between atoms: _15  and  _17
REMARK    7  A    between atoms: _17  and  _18
REMARK    8  A    between atoms: _17  and  _20
REMARK    9  A    between atoms: _23  and  _25
REMARK   10  A    between atoms: _25  and  _26
REMARK   11  A    between atoms: _25  and  _28
REMARK   12  A    between atoms: _28  and  _29
REMARK   13  A    between atoms: _32  and  _34
REMARK   14  A    between atoms: _34  and  _35
REMARK   15  A    between atoms: _34  and  _37
REMARK   16  A    between atoms: _37  and  _38
REMARK   17  A    between atoms: _41  and  _43
REMARK   18  A    between atoms: _43  and  _44
REMARK   19  A    between atoms: _43  and  _46
REMARK   20  A    between atoms: _46  and  _47
REMARK   21  A    between atoms: _50  and  _52
REMARK   22  A    between atoms: _52  and  _53
REMARK   23  A    between atoms: _52  and  _55
REMARK   24  A    between atoms: _55  and  _56
REMARK   25  A    between atoms: _59  and  _61
REMARK   26  A    between atoms: _61  and  _62
REMARK   27  A    between atoms: _61  and  _64
REMARK   28  A    between atoms: _64  and  _65
REMARK   29  A    between atoms: _75  and  _77
REMARK   30  A    between atoms: _77  and  _78
REMARK   31  A    between atoms: _80  and  _82
REMARK   32  A    between atoms: _82  and  _83
REMARK   33  A    between atoms: _85  and  _87
REMARK   34  A    between atoms: _87  and  _88
REMARK   35  A    between atoms: _87  and  _90
REMARK   36  A    between atoms: _90  and  _91
REMARK   37  A    between atoms: _96  and  _97
REMARK   38  A    between atoms: _99  and  _101
REMARK   39  A    between atoms: _101  and  _102
REMARK   40  A    between atoms: _101  and  _104
REMARK   41  A    between atoms: _104  and  _105
REMARK   42  A    between atoms: _107  and  _109
REMARK   43  A    between atoms: _109  and  _110
REMARK   44  A    between atoms: _109  and  _112
REMARK   45  A    between atoms: _112  and  _113
REMARK   46  A    between atoms: _115  and  _117
REMARK   47  A    between atoms: _117  and  _118
REMARK   48  A    between atoms: _117  and  _120
REMARK   49  A    between atoms: _123  and  _125
REMARK   50  A    between atoms: _125  and  _126
REMARK   51  A    between atoms: _125  and  _128
REMARK   52  A    between atoms: _128  and  _129
REMARK   53  A    between atoms: _134  and  _136
REMARK   54  A    between atoms: _136  and  _137
REMARK   55  A    between atoms: _136  and  _139
REMARK   56  A    between atoms: _139  and  _140
REMARK   57  A    between atoms: _140  and  _141
REMARK   58  A    between atoms: _144  and  _146
REMARK   59  A    between atoms: _146  and  _147
REMARK   60  A    between atoms: _146  and  _149
REMARK   61  A    between atoms: _149  and  _150
REMARK   62  A    between atoms: _160  and  _162
REMARK   63  A    between atoms: _162  and  _163
REMARK   64  A    between atoms: _162  and  _165
REMARK   65  A    between atoms: _165  and  _166
REMARK   66  A    between atoms: _171  and  _173
REMARK   67  A    between atoms: _173  and  _174
REMARK   68  A    between atoms: _173  and  _176
REMARK   69  A    between atoms: _176  and  _177
REMARK   70  A    between atoms: _180  and  _182
REMARK   71  A    between atoms: _182  and  _183
REMARK   72  A    between atoms: _182  and  _185
REMARK   73  A    between atoms: _185  and  _186
REMARK   74  A    between atoms: _186  and  _187
REMARK   75  A    between atoms: _192  and  _194
REMARK   76  A    between atoms: _194  and  _195
REMARK   77  A    between atoms: _194  and  _197
REMARK   78  A    between atoms: _197  and  _198
REMARK   79  A    between atoms: _198  and  _199
REMARK   80  A    between atoms: _202  and  _204
REMARK   81  A    between atoms: _204  and  _205
REMARK   82  A    between atoms: _204  and  _207
REMARK   83  A    between atoms: _207  and  _208
REMARK   84  A    between atoms: _210  and  _212
REMARK   85  A    between atoms: _212  and  _213
REMARK   86  A    between atoms: _212  and  _215
REMARK   87  A    between atoms: _218  and  _220
REMARK   88  A    between atoms: _220  and  _221
REMARK   89  A    between atoms: _220  and  _223
REMARK   90  A    between atoms: _223  and  _224
REMARK   91  A    between atoms: _230  and  _232
REMARK   92  A    between atoms: _232  and  _233
REMARK   93  A    between atoms: _232  and  _235
REMARK   94  A    between atoms: _235  and  _236
REMARK   95  A    between atoms: _236  and  _237
REMARK   96  A    between atoms: _237  and  _238
REMARK   97  A    between atoms: _247  and  _249
REMARK   98  A    between atoms: _249  and  _250
REMARK   99  A    between atoms: _249  and  _252
REMARK  100  A    between atoms: _252  and  _253
REMARK  101  A    between atoms: _259  and  _261
REMARK  102  A    between atoms: _261  and  _262
REMARK  103  A    between atoms: _261  and  _264
REMARK  104  A    between atoms: _264  and  _265
REMARK  105  A    between atoms: _267  and  _269
REMARK  106  A    between atoms: _269  and  _270
REMARK  107  A    between atoms: _269  and  _272
REMARK  108  A    between atoms: _272  and  _273
REMARK  109  A    between atoms: _278  and  _279
REMARK  110  A    between atoms: _281  and  _283
REMARK  111  A    between atoms: _283  and  _284
REMARK  112  A    between atoms: _283  and  _286
REMARK  113  A    between atoms: _286  and  _287
REMARK  114  A    between atoms: _293  and  _295
REMARK  115  A    between atoms: _295  and  _296
REMARK  116  A    between atoms: _295  and  _298
REMARK  117  A    between atoms: _298  and  _299
REMARK  118  A    between atoms: _302  and  _304
REMARK  119  A    between atoms: _304  and  _305
REMARK  120  A    between atoms: _304  and  _307
REMARK  121  A    between atoms: _310  and  _312
REMARK  122  A    between atoms: _312  and  _313
REMARK  123  A    between atoms: _312  and  _315
REMARK  124  A    between atoms: _315  and  _316
REMARK  125  A    between atoms: _321  and  _322
REMARK  126  A    between atoms: _324  and  _326
REMARK  127  A    between atoms: _326  and  _327
REMARK  128  A    between atoms: _329  and  _331
REMARK  129  A    between atoms: _331  and  _332
REMARK  130  A    between atoms: _335  and  _337
REMARK  131  A    between atoms: _337  and  _338
REMARK  132  A    between atoms: _337  and  _340
REMARK  133  A    between atoms: _343  and  _345
REMARK  134  A    between atoms: _345  and  _346
REMARK  135  A    between atoms: _345  and  _348
REMARK  136  A    between atoms: _351  and  _353
REMARK  137  A    between atoms: _353  and  _354
REMARK  138  A    between atoms: _353  and  _356
REMARK  139  A    between atoms: _356  and  _357
REMARK  140  A    between atoms: _362  and  _364
REMARK  141  A    between atoms: _364  and  _365
REMARK  142  A    between atoms: _364  and  _367
REMARK  143  A    between atoms: _367  and  _368
REMARK  144  A    between atoms: _378  and  _380
REMARK  145  A    between atoms: _380  and  _381
REMARK  146  A    between atoms: _380  and  _383
REMARK  147  A    between atoms: _383  and  _384
REMARK                            x       y       z     vdW  Elec       q    Type
REMARK                         _______ _______ _______ _____ _____    ______ ____
ROOT
ATOM      1  C   GLY A   1      -9.695 -38.943  30.327  0.00  0.00    +0.240 C 
ATOM      2  O   GLY A   1     -10.711 -38.286  30.498  0.00  0.00    -0.274 OA
ATOM      3  N   GLY A   2      -8.988 -38.908  29.191  0.00  0.00    -0.297 N 
ATOM      4  H   GLY A   2      -8.053 -39.363  29.175  0.00  0.00    +0.150 HD
ENDROOT
BRANCH   1   5
ATOM      5  CA  GLY A   1      -9.170 -39.831  31.456  0.00  0.00    +0.169 C 
BRANCH   5   6
ATOM      6  N   GLY A   1      -7.720 -39.909  31.437  0.00  0.00    -0.236 NA
ATOM      7  H   GLY A   1      -7.241 -40.211  30.565  0.00  0.00    +0.142 HD
ENDBRANCH   5   6
ENDBRANCH   1   5
BRANCH   3   8
ATOM      8  CA  GLY A   2      -9.470 -38.256  27.963  0.00  0.00    +0.163 C 
BRANCH   8   9
ATOM      9  C   GLY A   2      -9.645 -36.749  28.082  0.00  0.00    +0.229 C 
ATOM     10  O   GLY A   2     -10.355 -36.121  27.284  0.00  0.00    -0.286 OA
ENDBRANCH   8   9
ENDBRANCH   3   8
TORSDOF 4
REMARK  Name = ../refined-set-2016/4m0e/4m0e_pocket.pdb
REMARK  147 active torsions:
REMARK  status: ('A' for Active; 'I' for Inactive)
REMARK    1  A    between atoms: _1  and  _3
REMARK    2  A    between atoms: _3  and  _4
REMARK    3  A    between atoms: _3  and  _6
REMARK    4  A    between atoms: _6  and  _7
REMARK    5  A    between atoms: _12  and  _13
REMARK    6  A    between atoms: _15  and  _17
REMARK    7  A    between atoms: _17  and  _18
REMARK    8  A    between atoms: _17  and  _20
REMARK    9  A    between atoms: _23  and  _25
REMARK   10  A    between atoms: _25  and  _26
REMARK   11  A    between atoms: _25  and  _28
REMARK   12  A    between atoms: _28  and  _29
REMARK   13  A    between atoms: _32  and  _34
REMARK   14  A    between atoms: _34  and  _35
REMARK   15  A    between atoms: _34  and  _37
REMARK   16  A    between atoms: _37  and  _38
REMARK   17  A    between atoms: _41  and  _43
REMARK   18  A    between atoms: _43  and  _44
REMARK   19  A    between atoms: _43  and  _46
REMARK   20  A    between atoms: _46  and  _47
REMARK   21  A    between atoms: _50  and  _52
REMARK   22  A    between atoms: _52  and  _53
REMARK   23  A    between atoms: _52  and  _55
REMARK   24  A    between atoms: _55  and  _56
REMARK   25  A    between atoms: _59  and  _61
REMARK   26  A    between atoms: _61  and  _62
REMARK   27  A    between atoms: _61  and  _64
REMARK   28  A    between atoms: _64  and  _65
REMARK   29  A    between atoms: _75  and  _77
REMARK   30  A    between atoms: _77  and  _78
REMARK   31  A    between atoms: _80  and  _82
REMARK   32  A    between atoms: _82  and  _83
REMARK   33  A    between atoms: _85  and  _87
REMARK   34  A    between atoms: _87  and  _88
REMARK   35  A    between atoms: _87  and  _90
REMARK   36  A    between atoms: _90  and  _91
REMARK   37  A    between atoms: _96  and  _97
REMARK   38  A    between atoms: _99  and  _101
REMARK   39  A    between atoms: _101  and  _102
REMARK   40  A    between atoms: _101  and  _104
REMARK   41  A    between atoms: _104  and  _105
REMARK   42  A    between atoms: _107  and  _109
REMARK   43  A    between atoms: _109  and  _110
REMARK   44  A    between atoms: _109  and  _112
REMARK   45  A    between atoms: _112  and  _113
REMARK   46  A    between atoms: _115  and  _117
REMARK   47  A    between atoms: _117  and  _118
REMARK   48  A    between atoms: _117  and  _120
REMARK   49  A    between atoms: _123  and  _125
REMARK   50  A    between atoms: _125  and  _126
REMARK   51  A    between atoms: _125  and  _128
REMARK   52  A    between atoms: _128  and  _129
REMARK   53  A    between atoms: _134  and  _136
REMARK   54  A    between atoms: _136  and  _137
REMARK   55  A    between atoms: _136  and  _139
REMARK   56  A    between atoms: _139  and  _140
REMARK   57  A    between atoms: _140  and  _141
REMARK   58  A    between atoms: _144  and  _146
REMARK   59  A    between atoms: _146  and  _147
REMARK   60  A    between atoms: _146  and  _149
REMARK   61  A    between atoms: _149  and  _150
REMARK   62  A    between atoms: _160  and  _162
REMARK   63  A    between atoms: _162  and  _163
REMARK   64  A    between atoms: _162  and  _165
REMARK   65  A    between atoms: _165  and  _166
REMARK   66  A    between atoms: _171  and  _173
REMARK   67  A    between atoms: _173  and  _174
REMARK   68  A    between atoms: _173  and  _176
REMARK   69  A    between atoms: _176  and  _177
REMARK   70  A    between atoms: _180  and  _182
REMARK   71  A    between atoms: _182  and  _183
REMARK   72  A    between atoms: _182  and  _185
REMARK   73  A    between atoms: _185  and  _186
REMARK   74  A    between atoms: _186  and  _187
REMARK   75  A    between atoms: _192  and  _194
REMARK   76  A    between atoms: _194  and  _195
REMARK   77  A    between atoms: _194  and  _197
REMARK   78  A    between atoms: _197  and  _198
REMARK   79  A    between atoms: _198  and  _199
REMARK   80  A    between atoms: _202  and  _204
REMARK   81  A    between atoms: _204  and  _205
REMARK   82  A    between atoms: _204  and  _207
REMARK   83  A    between atoms: _207  and  _208
REMARK   84  A    between atoms: _210  and  _212
REMARK   85  A    between atoms: _212  and  _213
REMARK   86  A    between atoms: _212  and  _215
REMARK   87  A    between atoms: _218  and  _220
REMARK   88  A    between atoms: _220  and  _221
REMARK   89  A    between atoms: _220  and  _223
REMARK   90  A    between atoms: _223  and  _224
REMARK   91  A    between atoms: _230  and  _232
REMARK   92  A    between atoms: _232  and  _233
REMARK   93  A    between atoms: _232  and  _235
REMARK   94  A    between atoms: _235  and  _236
REMARK   95  A    between atoms: _236  and  _237
REMARK   96  A    between atoms: _237  and  _238
REMARK   97  A    between atoms: _247  and  _249
REMARK   98  A    between atoms: _249  and  _250
REMARK   99  A    between atoms: _249  and  _252
REMARK  100  A    between atoms: _252  and  _253
REMARK  101  A    between atoms: _259  and  _261
REMARK  102  A    between atoms: _261  and  _262
REMARK  103  A    between atoms: _261  and  _264
REMARK  104  A    between atoms: _264  and  _265
REMARK  105  A    between atoms: _267  and  _269
REMARK  106  A    between atoms: _269  and  _270
REMARK  107  A    between atoms: _269  and  _272
REMARK  108  A    between atoms: _272  and  _273
REMARK  109  A    between atoms: _278  and  _279
REMARK  110  A    between atoms: _281  and  _283
REMARK  111  A    between atoms: _283  and  _284
REMARK  112  A    between atoms: _283  and  _286
REMARK  113  A    between atoms: _286  and  _287
REMARK  114  A    between atoms: _293  and  _295
REMARK  115  A    between atoms: _295  and  _296
REMARK  116  A    between atoms: _295  and  _298
REMARK  117  A    between atoms: _298  and  _299
REMARK  118  A    between atoms: _302  and  _304
REMARK  119  A    between atoms: _304  and  _305
REMARK  120  A    between atoms: _304  and  _307
REMARK  121  A    between atoms: _310  and  _312
REMARK  122  A    between atoms: _312  and  _313
REMARK  123  A    between atoms: _312  and  _315
REMARK  124  A    between atoms: _315  and  _316
REMARK  125  A    between atoms: _321  and  _322
REMARK  126  A    between atoms: _324  and  _326
REMARK  127  A    between atoms: _326  and  _327
REMARK  128  A    between atoms: _329  and  _331
REMARK  129  A    between atoms: _331  and  _332
REMARK  130  A    between atoms: _335  and  _337
REMARK  131  A    between atoms: _337  and  _338
REMARK  132  A    between atoms: _337  and  _340
REMARK  133  A    between atoms: _343  and  _345
REMARK  134  A    between atoms: _345  and  _346
REMARK  135  A    between atoms: _345  and  _348
REMARK  136  A    between atoms: _351  and  _353
REMARK  137  A    between atoms: _353  and  _354
REMARK  138  A    between atoms: _353  and  _356
REMARK  139  A    between atoms: _356  and  _357
REMARK  140  A    between atoms: _362  and  _364
REMARK  141  A    between atoms: _364  and  _365
REMARK  142  A    between atoms: _364  and  _367
REMARK  143  A    between atoms: _367  and  _368
REMARK  144  A    between atoms: _378  and  _380
REMARK  145  A    between atoms: _380  and  _381
REMARK  146  A    between atoms: _380  and  _383
REMARK  147  A    between atoms: _383  and  _384
REMARK                            x       y       z     vdW  Elec       q    Type
REMARK                         _______ _______ _______ _____ _____    ______ ____
ROOT
ATOM      1  CA  TYR A   1     -12.828 -35.115  30.567  0.00  0.00    +0.149 C 
ENDROOT
BRANCH   1   2
ATOM      2  C   TYR A   1     -13.126 -35.699  31.962  0.00  0.00    +0.239 C 
ATOM      3  O   TYR A   1     -14.187 -35.430  32.516  0.00  0.00    -0.274 OA
ATOM      4  N   SER A   2     -12.204 -36.497  32.499  0.00  0.00    -0.296 N 
ATOM      5  H   SER A   2     -11.290 -36.587  32.011  0.00  0.00    +0.150 HD
BRANCH   4   6
ATOM      6  CA  SER A   2     -12.403 -37.252  33.733  0.00  0.00    +0.166 C 
BRANCH   6   7
ATOM      7  C   SER A   2     -11.071 -37.532  34.433  0.00  0.00    +0.229 C 
ATOM      8  O   SER A   2     -10.021 -37.248  33.859  0.00  0.00    -0.286 OA
ENDBRANCH   6   7
BRANCH   6   9
ATOM      9  CB  SER A   2     -13.078 -38.598  33.430  0.00  0.00    +0.165 C 
BRANCH   9  10
ATOM     10  OG  SER A   2     -12.300 -39.416  32.576  0.00  0.00    -0.380 OA
ATOM     11  H   SER A   2     -12.154 -38.948  31.716  0.00  0.00    +0.211 HD
ENDBRANCH   9  10
ENDBRANCH   6   9
ENDBRANCH   4   6
ENDBRANCH   1   2
BRANCH   1  12
ATOM     12  N   TYR A   1     -11.451 -35.410  30.095  0.00  0.00    -0.238 NA
ATOM     13  H   TYR A   1     -11.160 -36.392  29.917  0.00  0.00    +0.142 HD
ENDBRANCH   1  12
BRANCH   1  14
ATOM     14  CB  TYR A   1     -13.918 -35.587  29.555  0.00  0.00    +0.053 C 
BRANCH  14  15
ATOM     15  CG  TYR A   1     -14.038 -37.109  29.524  0.00  0.00    -0.020 A 
ATOM     16  CD2 TYR A   1     -14.897 -37.786  30.395  0.00  0.00    -0.001 A 
ATOM     17  CE2 TYR A   1     -14.969 -39.175  30.408  0.00  0.00    +0.036 A 
ATOM     18  CZ  TYR A   1     -14.187 -39.904  29.525  0.00  0.00    +0.134 A 
ATOM     19  CE1 TYR A   1     -13.353 -39.260  28.613  0.00  0.00    +0.036 A 
ATOM     20  CD1 TYR A   1     -13.281 -37.861  28.629  0.00  0.00    -0.001 A 
BRANCH  18  21
ATOM     21  OH  TYR A   1     -14.268 -41.275  29.519  0.00  0.00    -0.506 OA
ATOM     22  HH  TYR A   1     -14.899 -41.570  30.223  0.00  0.00    +0.292 HD
ENDBRANCH  18  21
ENDBRANCH  14  15
ENDBRANCH   1  14
TORSDOF 9
REMARK  Name = ../refined-set-2016/4m0e/4m0e_pocket.pdb
REMARK  147 active torsions:
REMARK  status: ('A' for Active; 'I' for Inactive)
REMARK    1  A    between atoms: _1  and  _3
REMARK    2  A    between atoms: _3  and  _4
REMARK    3  A    between atoms: _3  and  _6
REMARK    4  A    between atoms: _6  and  _7
REMARK    5  A    between atoms: _12  and  _13
REMARK    6  A    between atoms: _15  and  _17
REMARK    7  A    between atoms: _17  and  _18
REMARK    8  A    between atoms: _17  and  _20
REMARK    9  A    between atoms: _23  and  _25
REMARK   10  A    between atoms: _25  and  _26
REMARK   11  A    between atoms: _25  and  _28
REMARK   12  A    between atoms: _28  and  _29
REMARK   13  A    between atoms: _32  and  _34
REMARK   14  A    between atoms: _34  and  _35
REMARK   15  A    between atoms: _34  and  _37
REMARK   16  A    between atoms: _37  and  _38
REMARK   17  A    between atoms: _41  and  _43
REMARK   18  A    between atoms: _43  and  _44
REMARK   19  A    between atoms: _43  and  _46
REMARK   20  A    between atoms: _46  and  _47
REMARK   21  A    between atoms: _50  and  _52
REMARK   22  A    between atoms: _52  and  _53
REMARK   23  A    between atoms: _52  and  _55
REMARK   24  A    between atoms: _55  and  _56
REMARK   25  A    between atoms: _59  and  _61
REMARK   26  A    between atoms: _61  and  _62
REMARK   27  A    between atoms: _61  and  _64
REMARK   28  A    between atoms: _64  and  _65
REMARK   29  A    between atoms: _75  and  _77
REMARK   30  A    between atoms: _77  and  _78
REMARK   31  A    between atoms: _80  and  _82
REMARK   32  A    between atoms: _82  and  _83
REMARK   33  A    between atoms: _85  and  _87
REMARK   34  A    between atoms: _87  and  _88
REMARK   35  A    between atoms: _87  and  _90
REMARK   36  A    between atoms: _90  and  _91
REMARK   37  A    between atoms: _96  and  _97
REMARK   38  A    between atoms: _99  and  _101
REMARK   39  A    between atoms: _101  and  _102
REMARK   40  A    between atoms: _101  and  _104
REMARK   41  A    between atoms: _104  and  _105
REMARK   42  A    between atoms: _107  and  _109
REMARK   43  A    between atoms: _109  and  _110
REMARK   44  A    between atoms: _109  and  _112
REMARK   45  A    between atoms: _112  and  _113
REMARK   46  A    between atoms: _115  and  _117
REMARK   47  A    between atoms: _117  and  _118
REMARK   48  A    between atoms: _117  and  _120
REMARK   49  A    between atoms: _123  and  _125
REMARK   50  A    between atoms: _125  and  _126
REMARK   51  A    between atoms: _125  and  _128
REMARK   52  A    between atoms: _128  and  _129
REMARK   53  A    between atoms: _134  and  _136
REMARK   54  A    between atoms: _136  and  _137
REMARK   55  A    between atoms: _136  and  _139
REMARK   56  A    between atoms: _139  and  _140
REMARK   57  A    between atoms: _140  and  _141
REMARK   58  A    between atoms: _144  and  _146
REMARK   59  A    between atoms: _146  and  _147
REMARK   60  A    between atoms: _146  and  _149
REMARK   61  A    between atoms: _149  and  _150
REMARK   62  A    between atoms: _160  and  _162
REMARK   63  A    between atoms: _162  and  _163
REMARK   64  A    between atoms: _162  and  _165
REMARK   65  A    between atoms: _165  and  _166
REMARK   66  A    between atoms: _171  and  _173
REMARK   67  A    between atoms: _173  and  _174
REMARK   68  A    between atoms: _173  and  _176
REMARK   69  A    between atoms: _176  and  _177
REMARK   70  A    between atoms: _180  and  _182
REMARK   71  A    between atoms: _182  and  _183
REMARK   72  A    between atoms: _182  and  _185
REMARK   73  A    between atoms: _185  and  _186
REMARK   74  A    between atoms: _186  and  _187
REMARK   75  A    between atoms: _192  and  _194
REMARK   76  A    between atoms: _194  and  _195
REMARK   77  A    between atoms: _194  and  _197
REMARK   78  A    between atoms: _197  and  _198
REMARK   79  A    between atoms: _198  and  _199
REMARK   80  A    between atoms: _202  and  _204
REMARK   81  A    between atoms: _204  and  _205
REMARK   82  A    between atoms: _204  and  _207
REMARK   83  A    between atoms: _207  and  _208
REMARK   84  A    between atoms: _210  and  _212
REMARK   85  A    between atoms: _212  and  _213
REMARK   86  A    between atoms: _212  and  _215
REMARK   87  A    between atoms: _218  and  _220
REMARK   88  A    between atoms: _220  and  _221
REMARK   89  A    between atoms: _220  and  _223
REMARK   90  A    between atoms: _223  and  _224
REMARK   91  A    between atoms: _230  and  _232
REMARK   92  A    between atoms: _232  and  _233
REMARK   93  A    between atoms: _232  and  _235
REMARK   94  A    between atoms: _235  and  _236
REMARK   95  A    between atoms: _236  and  _237
REMARK   96  A    between atoms: _237  and  _238
REMARK   97  A    between atoms: _247  and  _249
REMARK   98  A    between atoms: _249  and  _250
REMARK   99  A    between atoms: _249  and  _252
REMARK  100  A    between atoms: _252  and  _253
REMARK  101  A    between atoms: _259  and  _261
REMARK  102  A    between atoms: _261  and  _262
REMARK  103  A    between atoms: _261  and  _264
REMARK  104  A    between atoms: _264  and  _265
REMARK  105  A    between atoms: _267  and  _269
REMARK  106  A    between atoms: _269  and  _270
REMARK  107  A    between atoms: _269  and  _272
REMARK  108  A    between atoms: _272  and  _273
REMARK  109  A    between atoms: _278  and  _279
REMARK  110  A    between atoms: _281  and  _283
REMARK  111  A    between atoms: _283  and  _284
REMARK  112  A    between atoms: _283  and  _286
REMARK  113  A    between atoms: _286  and  _287
REMARK  114  A    between atoms: _293  and  _295
REMARK  115  A    between atoms: _295  and  _296
REMARK  116  A    between atoms: _295  and  _298
REMARK  117  A    between atoms: _298  and  _299
REMARK  118  A    between atoms: _302  and  _304
REMARK  119  A    between atoms: _304  and  _305
REMARK  120  A    between atoms: _304  and  _307
REMARK  121  A    between atoms: _310  and  _312
REMARK  122  A    between atoms: _312  and  _313
REMARK  123  A    between atoms: _312  and  _315
REMARK  124  A    between atoms: _315  and  _316
REMARK  125  A    between atoms: _321  and  _322
REMARK  126  A    between atoms: _324  and  _326
REMARK  127  A    between atoms: _326  and  _327
REMARK  128  A    between atoms: _329  and  _331
REMARK  129  A    between atoms: _331  and  _332
REMARK  130  A    between atoms: _335  and  _337
REMARK  131  A    between atoms: _337  and  _338
REMARK  132  A    between atoms: _337  and  _340
REMARK  133  A    between atoms: _343  and  _345
REMARK  134  A    between atoms: _345  and  _346
REMARK  135  A    between atoms: _345  and  _348
REMARK  136  A    between atoms: _351  and  _353
REMARK  137  A    between atoms: _353  and  _354
REMARK  138  A    between atoms: _353  and  _356
REMARK  139  A    between atoms: _356  and  _357
REMARK  140  A    between atoms: _362  and  _364
REMARK  141  A    between atoms: _364  and  _365
REMARK  142  A    between atoms: _364  and  _367
REMARK  143  A    between atoms: _367  and  _368
REMARK  144  A    between atoms: _378  and  _380
REMARK  145  A    between atoms: _380  and  _381
REMARK  146  A    between atoms: _380  and  _383
REMARK  147  A    between atoms: _383  and  _384
REMARK                            x       y       z     vdW  Elec       q    Type
REMARK                         _______ _______ _______ _____ _____    ______ ____
ROOT
ATOM      1  CA  SER A   1      -3.311 -41.669  28.472  0.00  0.00    +0.163 C 
ENDROOT
BRANCH   1   2
ATOM      2  N   SER A   1      -2.256 -42.135  29.365  0.00  0.00    -0.237 NA
ATOM      3  H   SER A   1      -1.564 -42.827  29.012  0.00  0.00    +0.142 HD
ENDBRANCH   1   2
BRANCH   1   4
ATOM      4  C   SER A   1      -3.296 -40.133  28.297  0.00  0.00    +0.227 C 
ATOM      5  O   SER A   1      -2.275 -39.572  27.902  0.00  0.00    -0.287 OA
ENDBRANCH   1   4
BRANCH   1   6
ATOM      6  CB  SER A   1      -4.676 -42.158  28.994  0.00  0.00    +0.162 C 
BRANCH   6   7
ATOM      7  OG  SER A   1      -5.560 -42.309  27.880  0.00  0.00    -0.380 OA
ATOM      8  H   SER A   1      -6.442 -42.623  28.201  0.00  0.00    +0.211 HD
ENDBRANCH   6   7
ENDBRANCH   1   6
TORSDOF 4
REMARK  Name = ../refined-set-2016/4m0e/4m0e_pocket.pdb
REMARK  147 active torsions:
REMARK  status: ('A' for Active; 'I' for Inactive)
REMARK    1  A    between atoms: _1  and  _3
REMARK    2  A    between atoms: _3  and  _4
REMARK    3  A    between atoms: _3  and  _6
REMARK    4  A    between atoms: _6  and  _7
REMARK    5  A    between atoms: _12  and  _13
REMARK    6  A    between atoms: _15  and  _17
REMARK    7  A    between atoms: _17  and  _18
REMARK    8  A    between atoms: _17  and  _20
REMARK    9  A    between atoms: _23  and  _25
REMARK   10  A    between atoms: _25  and  _26
REMARK   11  A    between atoms: _25  and  _28
REMARK   12  A    between atoms: _28  and  _29
REMARK   13  A    between atoms: _32  and  _34
REMARK   14  A    between atoms: _34  and  _35
REMARK   15  A    between atoms: _34  and  _37
REMARK   16  A    between atoms: _37  and  _38
REMARK   17  A    between atoms: _41  and  _43
REMARK   18  A    between atoms: _43  and  _44
REMARK   19  A    between atoms: _43  and  _46
REMARK   20  A    between atoms: _46  and  _47
REMARK   21  A    between atoms: _50  and  _52
REMARK   22  A    between atoms: _52  and  _53
REMARK   23  A    between atoms: _52  and  _55
REMARK   24  A    between atoms: _55  and  _56
REMARK   25  A    between atoms: _59  and  _61
REMARK   26  A    between atoms: _61  and  _62
REMARK   27  A    between atoms: _61  and  _64
REMARK   28  A    between atoms: _64  and  _65
REMARK   29  A    between atoms: _75  and  _77
REMARK   30  A    between atoms: _77  and  _78
REMARK   31  A    between atoms: _80  and  _82
REMARK   32  A    between atoms: _82  and  _83
REMARK   33  A    between atoms: _85  and  _87
REMARK   34  A    between atoms: _87  and  _88
REMARK   35  A    between atoms: _87  and  _90
REMARK   36  A    between atoms: _90  and  _91
REMARK   37  A    between atoms: _96  and  _97
REMARK   38  A    between atoms: _99  and  _101
REMARK   39  A    between atoms: _101  and  _102
REMARK   40  A    between atoms: _101  and  _104
REMARK   41  A    between atoms: _104  and  _105
REMARK   42  A    between atoms: _107  and  _109
REMARK   43  A    between atoms: _109  and  _110
REMARK   44  A    between atoms: _109  and  _112
REMARK   45  A    between atoms: _112  and  _113
REMARK   46  A    between atoms: _115  and  _117
REMARK   47  A    between atoms: _117  and  _118
REMARK   48  A    between atoms: _117  and  _120
REMARK   49  A    between atoms: _123  and  _125
REMARK   50  A    between atoms: _125  and  _126
REMARK   51  A    between atoms: _125  and  _128
REMARK   52  A    between atoms: _128  and  _129
REMARK   53  A    between atoms: _134  and  _136
REMARK   54  A    between atoms: _136  and  _137
REMARK   55  A    between atoms: _136  and  _139
REMARK   56  A    between atoms: _139  and  _140
REMARK   57  A    between atoms: _140  and  _141
REMARK   58  A    between atoms: _144  and  _146
REMARK   59  A    between atoms: _146  and  _147
REMARK   60  A    between atoms: _146  and  _149
REMARK   61  A    between atoms: _149  and  _150
REMARK   62  A    between atoms: _160  and  _162
REMARK   63  A    between atoms: _162  and  _163
REMARK   64  A    between atoms: _162  and  _165
REMARK   65  A    between atoms: _165  and  _166
REMARK   66  A    between atoms: _171  and  _173
REMARK   67  A    between atoms: _173  and  _174
REMARK   68  A    between atoms: _173  and  _176
REMARK   69  A    between atoms: _176  and  _177
REMARK   70  A    between atoms: _180  and  _182
REMARK   71  A    between atoms: _182  and  _183
REMARK   72  A    between atoms: _182  and  _185
REMARK   73  A    between atoms: _185  and  _186
REMARK   74  A    between atoms: _186  and  _187
REMARK   75  A    between atoms: _192  and  _194
REMARK   76  A    between atoms: _194  and  _195
REMARK   77  A    between atoms: _194  and  _197
REMARK   78  A    between atoms: _197  and  _198
REMARK   79  A    between atoms: _198  and  _199
REMARK   80  A    between atoms: _202  and  _204
REMARK   81  A    between atoms: _204  and  _205
REMARK   82  A    between atoms: _204  and  _207
REMARK   83  A    between atoms: _207  and  _208
REMARK   84  A    between atoms: _210  and  _212
REMARK   85  A    between atoms: _212  and  _213
REMARK   86  A    between atoms: _212  and  _215
REMARK   87  A    between atoms: _218  and  _220
REMARK   88  A    between atoms: _220  and  _221
REMARK   89  A    between atoms: _220  and  _223
REMARK   90  A    between atoms: _223  and  _224
REMARK   91  A    between atoms: _230  and  _232
REMARK   92  A    between atoms: _232  and  _233
REMARK   93  A    between atoms: _232  and  _235
REMARK   94  A    between atoms: _235  and  _236
REMARK   95  A    between atoms: _236  and  _237
REMARK   96  A    between atoms: _237  and  _238
REMARK   97  A    between atoms: _247  and  _249
REMARK   98  A    between atoms: _249  and  _250
REMARK   99  A    between atoms: _249  and  _252
REMARK  100  A    between atoms: _252  and  _253
REMARK  101  A    between atoms: _259  and  _261
REMARK  102  A    between atoms: _261  and  _262
REMARK  103  A    between atoms: _261  and  _264
REMARK  104  A    between atoms: _264  and  _265
REMARK  105  A    between atoms: _267  and  _269
REMARK  106  A    between atoms: _269  and  _270
REMARK  107  A    between atoms: _269  and  _272
REMARK  108  A    between atoms: _272  and  _273
REMARK  109  A    between atoms: _278  and  _279
REMARK  110  A    between atoms: _281  and  _283
REMARK  111  A    between atoms: _283  and  _284
REMARK  112  A    between atoms: _283  and  _286
REMARK  113  A    between atoms: _286  and  _287
REMARK  114  A    between atoms: _293  and  _295
REMARK  115  A    between atoms: _295  and  _296
REMARK  116  A    between atoms: _295  and  _298
REMARK  117  A    between atoms: _298  and  _299
REMARK  118  A    between atoms: _302  and  _304
REMARK  119  A    between atoms: _304  and  _305
REMARK  120  A    between atoms: _304  and  _307
REMARK  121  A    between atoms: _310  and  _312
REMARK  122  A    between atoms: _312  and  _313
REMARK  123  A    between atoms: _312  and  _315
REMARK  124  A    between atoms: _315  and  _316
REMARK  125  A    between atoms: _321  and  _322
REMARK  126  A    between atoms: _324  and  _326
REMARK  127  A    between atoms: _326  and  _327
REMARK  128  A    between atoms: _329  and  _331
REMARK  129  A    between atoms: _331  and  _332
REMARK  130  A    between atoms: _335  and  _337
REMARK  131  A    between atoms: _337  and  _338
REMARK  132  A    between atoms: _337  and  _340
REMARK  133  A    between atoms: _343  and  _345
REMARK  134  A    between atoms: _345  and  _346
REMARK  135  A    between atoms: _345  and  _348
REMARK  136  A    between atoms: _351  and  _353
REMARK  137  A    between atoms: _353  and  _354
REMARK  138  A    between atoms: _353  and  _356
REMARK  139  A    between atoms: _356  and  _357
REMARK  140  A    between atoms: _362  and  _364
REMARK  141  A    between atoms: _364  and  _365
REMARK  142  A    between atoms: _364  and  _367
REMARK  143  A    between atoms: _367  and  _368
REMARK  144  A    between atoms: _378  and  _380
REMARK  145  A    between atoms: _380  and  _381
REMARK  146  A    between atoms: _380  and  _383
REMARK  147  A    between atoms: _383  and  _384
REMARK                            x       y       z     vdW  Elec       q    Type
REMARK                         _______ _______ _______ _____ _____    ______ ____
ROOT
ATOM      1  C   VAL A   1     -22.511 -32.610  31.107  0.00  0.00    +0.238 C 
ATOM      2  N   ASN A   2     -23.791 -32.327  31.341  0.00  0.00    -0.298 N 
ATOM      3  H   ASN A   2     -24.024 -31.556  31.999  0.00  0.00    +0.150 HD
ATOM      4  O   VAL A   1     -22.155 -33.472  30.302  0.00  0.00    -0.274 OA
ENDROOT
BRANCH   1   5
ATOM      5  CA  VAL A   1     -21.461 -31.810  31.887  0.00  0.00    +0.145 C 
BRANCH   5   6
ATOM      6  CB  VAL A   1     -21.221 -32.454  33.264  0.00  0.00    +0.025 C 
ATOM      7  CG2 VAL A   1     -20.006 -31.842  33.932  0.00  0.00    +0.002 C 
ATOM      8  CG1 VAL A   1     -21.043 -33.966  33.122  0.00  0.00    +0.002 C 
ENDBRANCH   5   6
BRANCH   5   9
ATOM      9  N   VAL A   1     -21.786 -30.394  32.005  0.00  0.00    -0.238 NA
ATOM     10  H   VAL A   1     -21.854 -29.955  32.946  0.00  0.00    +0.142 HD
ENDBRANCH   5   9
ENDBRANCH   1   5
BRANCH   2  11
ATOM     11  CA  ASN A   2     -24.886 -33.069  30.699  0.00  0.00    +0.146 C 
BRANCH  11  12
ATOM     12  C   ASN A   2     -24.913 -32.922  29.180  0.00  0.00    +0.227 C 
ATOM     13  O   ASN A   2     -25.518 -33.736  28.517  0.00  0.00    -0.286 OA
ENDBRANCH  11  12
BRANCH  11  14
ATOM     14  CB  ASN A   2     -26.266 -32.657  31.258  0.00  0.00    +0.112 C 
BRANCH  14  15
ATOM     15  CG  ASN A   2     -26.476 -33.114  32.714  0.00  0.00    +0.222 C 
ATOM     16  ND2 ASN A   2     -27.433 -32.484  33.393  0.00  0.00    -0.329 N 
ATOM     17 HD21 ASN A   2     -27.638 -32.756  34.376  0.00  0.00    +0.145 HD
ATOM     18 HD22 ASN A   2     -27.975 -31.720  32.941  0.00  0.00    +0.145 HD
ATOM     19  OD1 ASN A   2     -25.805 -34.027  33.207  0.00  0.00    -0.275 OA
ENDBRANCH  14  15
ENDBRANCH  11  14
ENDBRANCH   2  11
TORSDOF 7
REMARK  Name = ../refined-set-2016/4m0e/4m0e_pocket.pdb
REMARK  147 active torsions:
REMARK  status: ('A' for Active; 'I' for Inactive)
REMARK    1  A    between atoms: _1  and  _3
REMARK    2  A    between atoms: _3  and  _4
REMARK    3  A    between atoms: _3  and  _6
REMARK    4  A    between atoms: _6  and  _7
REMARK    5  A    between atoms: _12  and  _13
REMARK    6  A    between atoms: _15  and  _17
REMARK    7  A    between atoms: _17  and  _18
REMARK    8  A    between atoms: _17  and  _20
REMARK    9  A    between atoms: _23  and  _25
REMARK   10  A    between atoms: _25  and  _26
REMARK   11  A    between atoms: _25  and  _28
REMARK   12  A    between atoms: _28  and  _29
REMARK   13  A    between atoms: _32  and  _34
REMARK   14  A    between atoms: _34  and  _35
REMARK   15  A    between atoms: _34  and  _37
REMARK   16  A    between atoms: _37  and  _38
REMARK   17  A    between atoms: _41  and  _43
REMARK   18  A    between atoms: _43  and  _44
REMARK   19  A    between atoms: _43  and  _46
REMARK   20  A    between atoms: _46  and  _47
REMARK   21  A    between atoms: _50  and  _52
REMARK   22  A    between atoms: _52  and  _53
REMARK   23  A    between atoms: _52  and  _55
REMARK   24  A    between atoms: _55  and  _56
REMARK   25  A    between atoms: _59  and  _61
REMARK   26  A    between atoms: _61  and  _62
REMARK   27  A    between atoms: _61  and  _64
REMARK   28  A    between atoms: _64  and  _65
REMARK   29  A    between atoms: _75  and  _77
REMARK   30  A    between atoms: _77  and  _78
REMARK   31  A    between atoms: _80  and  _82
REMARK   32  A    between atoms: _82  and  _83
REMARK   33  A    between atoms: _85  and  _87
REMARK   34  A    between atoms: _87  and  _88
REMARK   35  A    between atoms: _87  and  _90
REMARK   36  A    between atoms: _90  and  _91
REMARK   37  A    between atoms: _96  and  _97
REMARK   38  A    between atoms: _99  and  _101
REMARK   39  A    between atoms: _101  and  _102
REMARK   40  A    between atoms: _101  and  _104
REMARK   41  A    between atoms: _104  and  _105
REMARK   42  A    between atoms: _107  and  _109
REMARK   43  A    between atoms: _109  and  _110
REMARK   44  A    between atoms: _109  and  _112
REMARK   45  A    between atoms: _112  and  _113
REMARK   46  A    between atoms: _115  and  _117
REMARK   47  A    between atoms: _117  and  _118
REMARK   48  A    between atoms: _117  and  _120
REMARK   49  A    between atoms: _123  and  _125
REMARK   50  A    between atoms: _125  and  _126
REMARK   51  A    between atoms: _125  and  _128
REMARK   52  A    between atoms: _128  and  _129
REMARK   53  A    between atoms: _134  and  _136
REMARK   54  A    between atoms: _136  and  _137
REMARK   55  A    between atoms: _136  and  _139
REMARK   56  A    between atoms: _139  and  _140
REMARK   57  A    between atoms: _140  and  _141
REMARK   58  A    between atoms: _144  and  _146
REMARK   59  A    between atoms: _146  and  _147
REMARK   60  A    between atoms: _146  and  _149
REMARK   61  A    between atoms: _149  and  _150
REMARK   62  A    between atoms: _160  and  _162
REMARK   63  A    between atoms: _162  and  _163
REMARK   64  A    between atoms: _162  and  _165
REMARK   65  A    between atoms: _165  and  _166
REMARK   66  A    between atoms: _171  and  _173
REMARK   67  A    between atoms: _173  and  _174
REMARK   68  A    between atoms: _173  and  _176
REMARK   69  A    between atoms: _176  and  _177
REMARK   70  A    between atoms: _180  and  _182
REMARK   71  A    between atoms: _182  and  _183
REMARK   72  A    between atoms: _182  and  _185
REMARK   73  A    between atoms: _185  and  _186
REMARK   74  A    between atoms: _186  and  _187
REMARK   75  A    between atoms: _192  and  _194
REMARK   76  A    between atoms: _194  and  _195
REMARK   77  A    between atoms: _194  and  _197
REMARK   78  A    between atoms: _197  and  _198
REMARK   79  A    between atoms: _198  and  _199
REMARK   80  A    between atoms: _202  and  _204
REMARK   81  A    between atoms: _204  and  _205
REMARK   82  A    between atoms: _204  and  _207
REMARK   83  A    between atoms: _207  and  _208
REMARK   84  A    between atoms: _210  and  _212
REMARK   85  A    between atoms: _212  and  _213
REMARK   86  A    between atoms: _212  and  _215
REMARK   87  A    between atoms: _218  and  _220
REMARK   88  A    between atoms: _220  and  _221
REMARK   89  A    between atoms: _220  and  _223
REMARK   90  A    between atoms: _223  and  _224
REMARK   91  A    between atoms: _230  and  _232
REMARK   92  A    between atoms: _232  and  _233
REMARK   93  A    between atoms: _232  and  _235
REMARK   94  A    between atoms: _235  and  _236
REMARK   95  A    between atoms: _236  and  _237
REMARK   96  A    between atoms: _237  and  _238
REMARK   97  A    between atoms: _247  and  _249
REMARK   98  A    between atoms: _249  and  _250
REMARK   99  A    between atoms: _249  and  _252
REMARK  100  A    between atoms: _252  and  _253
REMARK  101  A    between atoms: _259  and  _261
REMARK  102  A    between atoms: _261  and  _262
REMARK  103  A    between atoms: _261  and  _264
REMARK  104  A    between atoms: _264  and  _265
REMARK  105  A    between atoms: _267  and  _269
REMARK  106  A    between atoms: _269  and  _270
REMARK  107  A    between atoms: _269  and  _272
REMARK  108  A    between atoms: _272  and  _273
REMARK  109  A    between atoms: _278  and  _279
REMARK  110  A    between atoms: _281  and  _283
REMARK  111  A    between atoms: _283  and  _284
REMARK  112  A    between atoms: _283  and  _286
REMARK  113  A    between atoms: _286  and  _287
REMARK  114  A    between atoms: _293  and  _295
REMARK  115  A    between atoms: _295  and  _296
REMARK  116  A    between atoms: _295  and  _298
REMARK  117  A    between atoms: _298  and  _299
REMARK  118  A    between atoms: _302  and  _304
REMARK  119  A    between atoms: _304  and  _305
REMARK  120  A    between atoms: _304  and  _307
REMARK  121  A    between atoms: _310  and  _312
REMARK  122  A    between atoms: _312  and  _313
REMARK  123  A    between atoms: _312  and  _315
REMARK  124  A    between atoms: _315  and  _316
REMARK  125  A    between atoms: _321  and  _322
REMARK  126  A    between atoms: _324  and  _326
REMARK  127  A    between atoms: _326  and  _327
REMARK  128  A    between atoms: _329  and  _331
REMARK  129  A    between atoms: _331  and  _332
REMARK  130  A    between atoms: _335  and  _337
REMARK  131  A    between atoms: _337  and  _338
REMARK  132  A    between atoms: _337  and  _340
REMARK  133  A    between atoms: _343  and  _345
REMARK  134  A    between atoms: _345  and  _346
REMARK  135  A    between atoms: _345  and  _348
REMARK  136  A    between atoms: _351  and  _353
REMARK  137  A    between atoms: _353  and  _354
REMARK  138  A    between atoms: _353  and  _356
REMARK  139  A    between atoms: _356  and  _357
REMARK  140  A    between atoms: _362  and  _364
REMARK  141  A    between atoms: _364  and  _365
REMARK  142  A    between atoms: _364  and  _367
REMARK  143  A    between atoms: _367  and  _368
REMARK  144  A    between atoms: _378  and  _380
REMARK  145  A    between atoms: _380  and  _381
REMARK  146  A    between atoms: _380  and  _383
REMARK  147  A    between atoms: _383  and  _384
REMARK                            x       y       z     vdW  Elec       q    Type
REMARK                         _______ _______ _______ _____ _____    ______ ____
ROOT
ATOM      1  CA  TRP A   2     -20.509 -35.188  24.646  0.00  0.00    +0.153 C 
ENDROOT
BRANCH   1   3
ATOM      2  C   GLU A   1     -20.210 -32.972  25.583  0.00  0.00    +0.238 C 
ATOM      3  N   TRP A   2     -20.756 -34.185  25.666  0.00  0.00    -0.297 N 
ATOM      4  H   TRP A   2     -21.368 -34.417  26.474  0.00  0.00    +0.150 HD
ATOM      5  O   GLU A   1     -19.492 -32.645  24.662  0.00  0.00    -0.274 OA
BRANCH   2   6
ATOM      6  CA  GLU A   1     -20.545 -31.953  26.670  0.00  0.00    +0.145 C 
BRANCH   6   7
ATOM      7  N   GLU A   1     -21.884 -32.127  27.216  0.00  0.00    -0.238 NA
ATOM      8  H   GLU A   1     -22.014 -32.469  28.190  0.00  0.00    +0.142 HD
ENDBRANCH   6   7
BRANCH   6   9
ATOM      9  CB  GLU A   1     -19.471 -31.907  27.773  0.00  0.00    +0.038 C 
BRANCH   9  10
ATOM     10  CG  GLU A   1     -19.237 -33.215  28.465  0.00  0.00    +0.116 C 
BRANCH  10  11
ATOM     11  CD  GLU A   1     -18.164 -33.107  29.587  0.00  0.00    +0.365 C 
ATOM     12  OE2 GLU A   1     -17.831 -34.140  30.169  0.00  0.00    -0.246 OA
ATOM     13  OE1 GLU A   1     -17.647 -32.004  29.884  0.00  0.00    -0.246 OA
ENDBRANCH  10  11
ENDBRANCH   9  10
ENDBRANCH   6   9
ENDBRANCH   2   6
ENDBRANCH   1   3
BRANCH   1  14
ATOM     14  C   TRP A   2     -21.176 -34.850  23.314  0.00  0.00    +0.241 C 
ATOM     15  N   HIS A   3     -22.175 -33.990  23.370  0.00  0.00    -0.298 N 
ATOM     16  H   HIS A   3     -22.349 -33.453  24.244  0.00  0.00    +0.150 HD
ATOM     17  O   TRP A   2     -20.783 -35.338  22.252  0.00  0.00    -0.273 OA
BRANCH  15  18
ATOM     18  CA  HIS A   3     -23.027 -33.792  22.222  0.00  0.00    +0.143 C 
BRANCH  18  19
ATOM     19  C   HIS A   3     -22.480 -32.788  21.242  0.00  0.00    +0.227 C 
ATOM     20  O   HIS A   3     -23.033 -32.639  20.168  0.00  0.00    -0.286 OA
ENDBRANCH  18  19
BRANCH  18  21
ATOM     21  CB  HIS A   3     -24.463 -33.455  22.649  0.00  0.00    +0.075 C 
BRANCH  21  22
ATOM     22  CG  HIS A   3     -25.115 -34.566  23.410  0.00  0.00    +0.082 A 
ATOM     23  ND1 HIS A   3     -25.206 -34.575  24.788  0.00  0.00    -0.227 NA
ATOM     24  CE1 HIS A   3     -25.797 -35.690  25.180  0.00  0.00    +0.199 A 
ATOM     25  NE2 HIS A   3     -26.077 -36.412  24.109  0.00  0.00    -0.221 NA
ATOM     26  CD2 HIS A   3     -25.651 -35.737  22.989  0.00  0.00    +0.115 A 
ENDBRANCH  21  22
ENDBRANCH  18  21
ENDBRANCH  15  18
ENDBRANCH   1  14
BRANCH   1  27
ATOM     27  CB  TRP A   2     -20.979 -36.557  25.136  0.00  0.00    +0.057 C 
BRANCH  27  28
ATOM     28  CG  TRP A   2     -20.080 -37.137  26.177  0.00  0.00    -0.002 A 
ATOM     29  CD1 TRP A   2     -20.287 -37.158  27.541  0.00  0.00    +0.068 A 
ATOM     30  NE1 TRP A   2     -19.240 -37.789  28.163  0.00  0.00    -0.352 N 
ATOM     31  HE1 TRP A   2     -19.156 -37.952  29.187  0.00  0.00    +0.166 HD
ATOM     32  CE2 TRP A   2     -18.319 -38.171  27.217  0.00  0.00    +0.056 A 
ATOM     33  CZ2 TRP A   2     -17.096 -38.846  27.367  0.00  0.00    +0.017 A 
ATOM     34  CH2 TRP A   2     -16.376 -39.116  26.228  0.00  0.00    +0.001 A 
ATOM     35  CZ3 TRP A   2     -16.843 -38.730  24.954  0.00  0.00    +0.000 A 
ATOM     36  CE3 TRP A   2     -18.062 -38.065  24.804  0.00  0.00    +0.001 A 
ATOM     37  CD2 TRP A   2     -18.821 -37.782  25.952  0.00  0.00    +0.013 A 
ENDBRANCH  27  28
ENDBRANCH   1  27
TORSDOF 13
REMARK  Name = ../refined-set-2016/4m0e/4m0e_pocket.pdb
REMARK  147 active torsions:
REMARK  status: ('A' for Active; 'I' for Inactive)
REMARK    1  A    between atoms: _1  and  _3
REMARK    2  A    between atoms: _3  and  _4
REMARK    3  A    between atoms: _3  and  _6
REMARK    4  A    between atoms: _6  and  _7
REMARK    5  A    between atoms: _12  and  _13
REMARK    6  A    between atoms: _15  and  _17
REMARK    7  A    between atoms: _17  and  _18
REMARK    8  A    between atoms: _17  and  _20
REMARK    9  A    between atoms: _23  and  _25
REMARK   10  A    between atoms: _25  and  _26
REMARK   11  A    between atoms: _25  and  _28
REMARK   12  A    between atoms: _28  and  _29
REMARK   13  A    between atoms: _32  and  _34
REMARK   14  A    between atoms: _34  and  _35
REMARK   15  A    between atoms: _34  and  _37
REMARK   16  A    between atoms: _37  and  _38
REMARK   17  A    between atoms: _41  and  _43
REMARK   18  A    between atoms: _43  and  _44
REMARK   19  A    between atoms: _43  and  _46
REMARK   20  A    between atoms: _46  and  _47
REMARK   21  A    between atoms: _50  and  _52
REMARK   22  A    between atoms: _52  and  _53
REMARK   23  A    between atoms: _52  and  _55
REMARK   24  A    between atoms: _55  and  _56
REMARK   25  A    between atoms: _59  and  _61
REMARK   26  A    between atoms: _61  and  _62
REMARK   27  A    between atoms: _61  and  _64
REMARK   28  A    between atoms: _64  and  _65
REMARK   29  A    between atoms: _75  and  _77
REMARK   30  A    between atoms: _77  and  _78
REMARK   31  A    between atoms: _80  and  _82
REMARK   32  A    between atoms: _82  and  _83
REMARK   33  A    between atoms: _85  and  _87
REMARK   34  A    between atoms: _87  and  _88
REMARK   35  A    between atoms: _87  and  _90
REMARK   36  A    between atoms: _90  and  _91
REMARK   37  A    between atoms: _96  and  _97
REMARK   38  A    between atoms: _99  and  _101
REMARK   39  A    between atoms: _101  and  _102
REMARK   40  A    between atoms: _101  and  _104
REMARK   41  A    between atoms: _104  and  _105
REMARK   42  A    between atoms: _107  and  _109
REMARK   43  A    between atoms: _109  and  _110
REMARK   44  A    between atoms: _109  and  _112
REMARK   45  A    between atoms: _112  and  _113
REMARK   46  A    between atoms: _115  and  _117
REMARK   47  A    between atoms: _117  and  _118
REMARK   48  A    between atoms: _117  and  _120
REMARK   49  A    between atoms: _123  and  _125
REMARK   50  A    between atoms: _125  and  _126
REMARK   51  A    between atoms: _125  and  _128
REMARK   52  A    between atoms: _128  and  _129
REMARK   53  A    between atoms: _134  and  _136
REMARK   54  A    between atoms: _136  and  _137
REMARK   55  A    between atoms: _136  and  _139
REMARK   56  A    between atoms: _139  and  _140
REMARK   57  A    between atoms: _140  and  _141
REMARK   58  A    between atoms: _144  and  _146
REMARK   59  A    between atoms: _146  and  _147
REMARK   60  A    between atoms: _146  and  _149
REMARK   61  A    between atoms: _149  and  _150
REMARK   62  A    between atoms: _160  and  _162
REMARK   63  A    between atoms: _162  and  _163
REMARK   64  A    between atoms: _162  and  _165
REMARK   65  A    between atoms: _165  and  _166
REMARK   66  A    between atoms: _171  and  _173
REMARK   67  A    between atoms: _173  and  _174
REMARK   68  A    between atoms: _173  and  _176
REMARK   69  A    between atoms: _176  and  _177
REMARK   70  A    between atoms: _180  and  _182
REMARK   71  A    between atoms: _182  and  _183
REMARK   72  A    between atoms: _182  and  _185
REMARK   73  A    between atoms: _185  and  _186
REMARK   74  A    between atoms: _186  and  _187
REMARK   75  A    between atoms: _192  and  _194
REMARK   76  A    between atoms: _194  and  _195
REMARK   77  A    between atoms: _194  and  _197
REMARK   78  A    between atoms: _197  and  _198
REMARK   79  A    between atoms: _198  and  _199
REMARK   80  A    between atoms: _202  and  _204
REMARK   81  A    between atoms: _204  and  _205
REMARK   82  A    between atoms: _204  and  _207
REMARK   83  A    between atoms: _207  and  _208
REMARK   84  A    between atoms: _210  and  _212
REMARK   85  A    between atoms: _212  and  _213
REMARK   86  A    between atoms: _212  and  _215
REMARK   87  A    between atoms: _218  and  _220
REMARK   88  A    between atoms: _220  and  _221
REMARK   89  A    between atoms: _220  and  _223
REMARK   90  A    between atoms: _223  and  _224
REMARK   91  A    between atoms: _230  and  _232
REMARK   92  A    between atoms: _232  and  _233
REMARK   93  A    between atoms: _232  and  _235
REMARK   94  A    between atoms: _235  and  _236
REMARK   95  A    between atoms: _236  and  _237
REMARK   96  A    between atoms: _237  and  _238
REMARK   97  A    between atoms: _247  and  _249
REMARK   98  A    between atoms: _249  and  _250
REMARK   99  A    between atoms: _249  and  _252
REMARK  100  A    between atoms: _252  and  _253
REMARK  101  A    between atoms: _259  and  _261
REMARK  102  A    between atoms: _261  and  _262
REMARK  103  A    between atoms: _261  and  _264
REMARK  104  A    between atoms: _264  and  _265
REMARK  105  A    between atoms: _267  and  _269
REMARK  106  A    between atoms: _269  and  _270
REMARK  107  A    between atoms: _269  and  _272
REMARK  108  A    between atoms: _272  and  _273
REMARK  109  A    between atoms: _278  and  _279
REMARK  110  A    between atoms: _281  and  _283
REMARK  111  A    between atoms: _283  and  _284
REMARK  112  A    between atoms: _283  and  _286
REMARK  113  A    between atoms: _286  and  _287
REMARK  114  A    between atoms: _293  and  _295
REMARK  115  A    between atoms: _295  and  _296
REMARK  116  A    between atoms: _295  and  _298
REMARK  117  A    between atoms: _298  and  _299
REMARK  118  A    between atoms: _302  and  _304
REMARK  119  A    between atoms: _304  and  _305
REMARK  120  A    between atoms: _304  and  _307
REMARK  121  A    between atoms: _310  and  _312
REMARK  122  A    between atoms: _312  and  _313
REMARK  123  A    between atoms: _312  and  _315
REMARK  124  A    between atoms: _315  and  _316
REMARK  125  A    between atoms: _321  and  _322
REMARK  126  A    between atoms: _324  and  _326
REMARK  127  A    between atoms: _326  and  _327
REMARK  128  A    between atoms: _329  and  _331
REMARK  129  A    between atoms: _331  and  _332
REMARK  130  A    between atoms: _335  and  _337
REMARK  131  A    between atoms: _337  and  _338
REMARK  132  A    between atoms: _337  and  _340
REMARK  133  A    between atoms: _343  and  _345
REMARK  134  A    between atoms: _345  and  _346
REMARK  135  A    between atoms: _345  and  _348
REMARK  136  A    between atoms: _351  and  _353
REMARK  137  A    between atoms: _353  and  _354
REMARK  138  A    between atoms: _353  and  _356
REMARK  139  A    between atoms: _356  and  _357
REMARK  140  A    between atoms: _362  and  _364
REMARK  141  A    between atoms: _364  and  _365
REMARK  142  A    between atoms: _364  and  _367
REMARK  143  A    between atoms: _367  and  _368
REMARK  144  A    between atoms: _378  and  _380
REMARK  145  A    between atoms: _380  and  _381
REMARK  146  A    between atoms: _380  and  _383
REMARK  147  A    between atoms: _383  and  _384
REMARK                            x       y       z     vdW  Elec       q    Type
REMARK                         _______ _______ _______ _____ _____    ______ ____
ROOT
ATOM      1  CA  LEU A   1     -18.620 -33.830  18.948  0.00  0.00    +0.133 C 
ENDROOT
BRANCH   1   2
ATOM      2  N   LEU A   1     -19.504 -33.118  19.858  0.00  0.00    -0.239 NA
ATOM      3  H   LEU A   1     -19.940 -33.626  20.653  0.00  0.00    +0.142 HD
ENDBRANCH   1   2
BRANCH   1   4
ATOM      4  C   LEU A   1     -19.280 -33.857  17.560  0.00  0.00    +0.224 C 
ATOM      5  O   LEU A   1     -20.496 -33.910  17.462  0.00  0.00    -0.287 OA
ENDBRANCH   1   4
BRANCH   1   6
ATOM      6  CB  LEU A   1     -18.347 -35.249  19.456  0.00  0.00    +0.025 C 
BRANCH   6   7
ATOM      7  CG  LEU A   1     -17.295 -35.317  20.581  0.00  0.00    +0.002 C 
ATOM      8  CD2 LEU A   1     -17.231 -36.709  21.143  0.00  0.00    +0.000 C 
ATOM      9  CD1 LEU A   1     -15.900 -34.870  20.078  0.00  0.00    +0.000 C 
ENDBRANCH   6   7
ENDBRANCH   1   6
TORSDOF 4
REMARK  Name = ../refined-set-2016/4m0e/4m0e_pocket.pdb
REMARK  147 active torsions:
REMARK  status: ('A' for Active; 'I' for Inactive)
REMARK    1  A    between atoms: _1  and  _3
REMARK    2  A    between atoms: _3  and  _4
REMARK    3  A    between atoms: _3  and  _6
REMARK    4  A    between atoms: _6  and  _7
REMARK    5  A    between atoms: _12  and  _13
REMARK    6  A    between atoms: _15  and  _17
REMARK    7  A    between atoms: _17  and  _18
REMARK    8  A    between atoms: _17  and  _20
REMARK    9  A    between atoms: _23  and  _25
REMARK   10  A    between atoms: _25  and  _26
REMARK   11  A    between atoms: _25  and  _28
REMARK   12  A    between atoms: _28  and  _29
REMARK   13  A    between atoms: _32  and  _34
REMARK   14  A    between atoms: _34  and  _35
REMARK   15  A    between atoms: _34  and  _37
REMARK   16  A    between atoms: _37  and  _38
REMARK   17  A    between atoms: _41  and  _43
REMARK   18  A    between atoms: _43  and  _44
REMARK   19  A    between atoms: _43  and  _46
REMARK   20  A    between atoms: _46  and  _47
REMARK   21  A    between atoms: _50  and  _52
REMARK   22  A    between atoms: _52  and  _53
REMARK   23  A    between atoms: _52  and  _55
REMARK   24  A    between atoms: _55  and  _56
REMARK   25  A    between atoms: _59  and  _61
REMARK   26  A    between atoms: _61  and  _62
REMARK   27  A    between atoms: _61  and  _64
REMARK   28  A    between atoms: _64  and  _65
REMARK   29  A    between atoms: _75  and  _77
REMARK   30  A    between atoms: _77  and  _78
REMARK   31  A    between atoms: _80  and  _82
REMARK   32  A    between atoms: _82  and  _83
REMARK   33  A    between atoms: _85  and  _87
REMARK   34  A    between atoms: _87  and  _88
REMARK   35  A    between atoms: _87  and  _90
REMARK   36  A    between atoms: _90  and  _91
REMARK   37  A    between atoms: _96  and  _97
REMARK   38  A    between atoms: _99  and  _101
REMARK   39  A    between atoms: _101  and  _102
REMARK   40  A    between atoms: _101  and  _104
REMARK   41  A    between atoms: _104  and  _105
REMARK   42  A    between atoms: _107  and  _109
REMARK   43  A    between atoms: _109  and  _110
REMARK   44  A    between atoms: _109  and  _112
REMARK   45  A    between atoms: _112  and  _113
REMARK   46  A    between atoms: _115  and  _117
REMARK   47  A    between atoms: _117  and  _118
REMARK   48  A    between atoms: _117  and  _120
REMARK   49  A    between atoms: _123  and  _125
REMARK   50  A    between atoms: _125  and  _126
REMARK   51  A    between atoms: _125  and  _128
REMARK   52  A    between atoms: _128  and  _129
REMARK   53  A    between atoms: _134  and  _136
REMARK   54  A    between atoms: _136  and  _137
REMARK   55  A    between atoms: _136  and  _139
REMARK   56  A    between atoms: _139  and  _140
REMARK   57  A    between atoms: _140  and  _141
REMARK   58  A    between atoms: _144  and  _146
REMARK   59  A    between atoms: _146  and  _147
REMARK   60  A    between atoms: _146  and  _149
REMARK   61  A    between atoms: _149  and  _150
REMARK   62  A    between atoms: _160  and  _162
REMARK   63  A    between atoms: _162  and  _163
REMARK   64  A    between atoms: _162  and  _165
REMARK   65  A    between atoms: _165  and  _166
REMARK   66  A    between atoms: _171  and  _173
REMARK   67  A    between atoms: _173  and  _174
REMARK   68  A    between atoms: _173  and  _176
REMARK   69  A    between atoms: _176  and  _177
REMARK   70  A    between atoms: _180  and  _182
REMARK   71  A    between atoms: _182  and  _183
REMARK   72  A    between atoms: _182  and  _185
REMARK   73  A    between atoms: _185  and  _186
REMARK   74  A    between atoms: _186  and  _187
REMARK   75  A    between atoms: _192  and  _194
REMARK   76  A    between atoms: _194  and  _195
REMARK   77  A    between atoms: _194  and  _197
REMARK   78  A    between atoms: _197  and  _198
REMARK   79  A    between atoms: _198  and  _199
REMARK   80  A    between atoms: _202  and  _204
REMARK   81  A    between atoms: _204  and  _205
REMARK   82  A    between atoms: _204  and  _207
REMARK   83  A    between atoms: _207  and  _208
REMARK   84  A    between atoms: _210  and  _212
REMARK   85  A    between atoms: _212  and  _213
REMARK   86  A    between atoms: _212  and  _215
REMARK   87  A    between atoms: _218  and  _220
REMARK   88  A    between atoms: _220  and  _221
REMARK   89  A    between atoms: _220  and  _223
REMARK   90  A    between atoms: _223  and  _224
REMARK   91  A    between atoms: _230  and  _232
REMARK   92  A    between atoms: _232  and  _233
REMARK   93  A    between atoms: _232  and  _235
REMARK   94  A    between atoms: _235  and  _236
REMARK   95  A    between atoms: _236  and  _237
REMARK   96  A    between atoms: _237  and  _238
REMARK   97  A    between atoms: _247  and  _249
REMARK   98  A    between atoms: _249  and  _250
REMARK   99  A    between atoms: _249  and  _252
REMARK  100  A    between atoms: _252  and  _253
REMARK  101  A    between atoms: _259  and  _261
REMARK  102  A    between atoms: _261  and  _262
REMARK  103  A    between atoms: _261  and  _264
REMARK  104  A    between atoms: _264  and  _265
REMARK  105  A    between atoms: _267  and  _269
REMARK  106  A    between atoms: _269  and  _270
REMARK  107  A    between atoms: _269  and  _272
REMARK  108  A    between atoms: _272  and  _273
REMARK  109  A    between atoms: _278  and  _279
REMARK  110  A    between atoms: _281  and  _283
REMARK  111  A    between atoms: _283  and  _284
REMARK  112  A    between atoms: _283  and  _286
REMARK  113  A    between atoms: _286  and  _287
REMARK  114  A    between atoms: _293  and  _295
REMARK  115  A    between atoms: _295  and  _296
REMARK  116  A    between atoms: _295  and  _298
REMARK  117  A    between atoms: _298  and  _299
REMARK  118  A    between atoms: _302  and  _304
REMARK  119  A    between atoms: _304  and  _305
REMARK  120  A    between atoms: _304  and  _307
REMARK  121  A    between atoms: _310  and  _312
REMARK  122  A    between atoms: _312  and  _313
REMARK  123  A    between atoms: _312  and  _315
REMARK  124  A    between atoms: _315  and  _316
REMARK  125  A    between atoms: _321  and  _322
REMARK  126  A    between atoms: _324  and  _326
REMARK  127  A    between atoms: _326  and  _327
REMARK  128  A    between atoms: _329  and  _331
REMARK  129  A    between atoms: _331  and  _332
REMARK  130  A    between atoms: _335  and  _337
REMARK  131  A    between atoms: _337  and  _338
REMARK  132  A    between atoms: _337  and  _340
REMARK  133  A    between atoms: _343  and  _345
REMARK  134  A    between atoms: _345  and  _346
REMARK  135  A    between atoms: _345  and  _348
REMARK  136  A    between atoms: _351  and  _353
REMARK  137  A    between atoms: _353  and  _354
REMARK  138  A    between atoms: _353  and  _356
REMARK  139  A    between atoms: _356  and  _357
REMARK  140  A    between atoms: _362  and  _364
REMARK  141  A    between atoms: _364  and  _365
REMARK  142  A    between atoms: _364  and  _367
REMARK  143  A    between atoms: _367  and  _368
REMARK  144  A    between atoms: _378  and  _380
REMARK  145  A    between atoms: _380  and  _381
REMARK  146  A    between atoms: _380  and  _383
REMARK  147  A    between atoms: _383  and  _384
REMARK                            x       y       z     vdW  Elec       q    Type
REMARK                         _______ _______ _______ _____ _____    ______ ____
ROOT
ATOM      1  CA  PHE A   5     -11.708 -42.266  21.559  0.00  0.00    +0.153 C 
ENDROOT
BRANCH   1   3
ATOM      2  C   VAL A   4     -13.589 -43.043  20.187  0.00  0.00    +0.241 C 
ATOM      3  N   PHE A   5     -13.038 -42.874  21.387  0.00  0.00    -0.297 N 
ATOM      4  H   PHE A   5     -13.564 -43.181  22.230  0.00  0.00    +0.150 HD
ATOM      5  O   VAL A   4     -13.056 -42.648  19.146  0.00  0.00    -0.273 OA
BRANCH   2   6
ATOM      6  CA  VAL A   4     -14.949 -43.742  20.131  0.00  0.00    +0.149 C 
BRANCH   6   9
ATOM      7  C   SER A   3     -16.699 -42.653  18.875  0.00  0.00    +0.243 C 
ATOM      8  O   SER A   3     -17.415 -42.593  19.876  0.00  0.00    -0.273 OA
ATOM      9  N   VAL A   4     -15.570 -43.353  18.856  0.00  0.00    -0.297 N 
ATOM     10  H   VAL A   4     -15.132 -43.622  17.952  0.00  0.00    +0.150 HD
BRANCH   7  11
ATOM     11  CA  SER A   3     -17.103 -41.937  17.610  0.00  0.00    +0.178 C 
BRANCH  11  13
ATOM     12  C   GLU A   2     -19.257 -41.293  16.692  0.00  0.00    +0.241 C 
ATOM     13  N   SER A   3     -18.461 -41.431  17.746  0.00  0.00    -0.295 N 
ATOM     14  H   SER A   3     -18.816 -41.172  18.689  0.00  0.00    +0.150 HD
ATOM     15  O   GLU A   2     -18.962 -41.726  15.591  0.00  0.00    -0.273 OA
BRANCH  12  16
ATOM     16  CA  GLU A   2     -20.573 -40.542  16.916  0.00  0.00    +0.149 C 
BRANCH  16  19
ATOM     17  C   GLN A   1     -19.979 -38.376  16.046  0.00  0.00    +0.238 C 
ATOM     18  O   GLN A   1     -19.305 -38.112  17.042  0.00  0.00    -0.274 OA
ATOM     19  N   GLU A   2     -20.686 -39.492  15.920  0.00  0.00    -0.297 N 
ATOM     20  H   GLU A   2     -21.322 -39.615  15.106  0.00  0.00    +0.150 HD
BRANCH  17  21
ATOM     21  CA  GLN A   1     -20.027 -37.422  14.897  0.00  0.00    +0.145 C 
BRANCH  21  22
ATOM     22  N   GLN A   1     -19.352 -36.189  15.279  0.00  0.00    -0.238 NA
ATOM     23  H   GLN A   1     -18.613 -36.198  16.011  0.00  0.00    +0.142 HD
ENDBRANCH  21  22
BRANCH  21  24
ATOM     24  CB  GLN A   1     -19.324 -38.067  13.703  0.00  0.00    +0.036 C 
BRANCH  24  25
ATOM     25  CG  GLN A   1     -18.039 -38.766  14.107  0.00  0.00    +0.087 C 
BRANCH  25  26
ATOM     26  CD  GLN A   1     -17.509 -39.676  13.004  0.00  0.00    +0.219 C 
ATOM     27  NE2 GLN A   1     -17.667 -40.991  13.185  0.00  0.00    -0.329 N 
ATOM     28 HE21 GLN A   1     -18.127 -41.346  14.048  0.00  0.00    +0.145 HD
ATOM     29 HE22 GLN A   1     -17.330 -41.659  12.463  0.00  0.00    +0.145 HD
ATOM     30  OE1 GLN A   1     -16.969 -39.199  11.998  0.00  0.00    -0.275 OA
ENDBRANCH  25  26
ENDBRANCH  24  25
ENDBRANCH  21  24
ENDBRANCH  17  21
ENDBRANCH  16  19
BRANCH  16  31
ATOM     31  CB  GLU A   2     -21.784 -41.484  16.881  0.00  0.00    +0.041 C 
BRANCH  31  32
ATOM     32  CG  GLU A   2     -23.035 -40.880  17.549  0.00  0.00    +0.116 C 
BRANCH  32  33
ATOM     33  CD  GLU A   2     -24.295 -41.712  17.341  0.00  0.00    +0.365 C 
ATOM     34  OE2 GLU A   2     -25.399 -41.127  17.357  0.00  0.00    -0.246 OA
ATOM     35  OE1 GLU A   2     -24.188 -42.945  17.155  0.00  0.00    -0.246 OA
ENDBRANCH  32  33
ENDBRANCH  31  32
ENDBRANCH  16  31
ENDBRANCH  12  16
ENDBRANCH  11  13
BRANCH  11  36
ATOM     36  CB  SER A   3     -16.155 -40.767  17.337  0.00  0.00    +0.166 C 
BRANCH  36  37
ATOM     37  OG  SER A   3     -16.377 -39.710  18.266  0.00  0.00    -0.380 OA
ATOM     38  H   SER A   3     -16.220 -40.042  19.185  0.00  0.00    +0.211 HD
ENDBRANCH  36  37
ENDBRANCH  11  36
ENDBRANCH   7  11
ENDBRANCH   6   9
BRANCH   6  39
ATOM     39  CB  VAL A   4     -14.793 -45.268  20.306  0.00  0.00    +0.027 C 
ATOM     40  CG2 VAL A   4     -16.175 -45.947  20.303  0.00  0.00    +0.002 C 
ATOM     41  CG1 VAL A   4     -13.862 -45.866  19.235  0.00  0.00    +0.002 C 
ENDBRANCH   6  39
ENDBRANCH   2   6
ENDBRANCH   1   3
BRANCH   1  42
ATOM     42  C   PHE A   5     -11.645 -40.828  21.032  0.00  0.00    +0.241 C 
ATOM     43  N   ARG A   6     -12.743 -40.090  21.167  0.00  0.00    -0.297 N 
ATOM     44  H   ARG A   6     -13.620 -40.538  21.503  0.00  0.00    +0.150 HD
ATOM     45  O   PHE A   5     -10.628 -40.399  20.480  0.00  0.00    -0.273 OA
BRANCH  43  46
ATOM     46  CA  ARG A   6     -12.743 -38.661  20.853  0.00  0.00    +0.149 C 
BRANCH  46  47
ATOM     47  C   ARG A   6     -13.454 -37.936  21.976  0.00  0.00    +0.241 C 
ATOM     48  O   ARG A   6     -14.473 -38.412  22.496  0.00  0.00    -0.273 OA
ATOM     49  N   PHE A   7     -12.910 -36.787  22.352  0.00  0.00    -0.297 N 
ATOM     50  H   PHE A   7     -12.126 -36.390  21.796  0.00  0.00    +0.150 HD
BRANCH  49  51
ATOM     51  CA  PHE A   7     -13.386 -36.067  23.529  0.00  0.00    +0.153 C 
BRANCH  51  52
ATOM     52  C   PHE A   7     -13.578 -34.629  23.130  0.00  0.00    +0.241 C 
ATOM     53  N   SER A   8     -14.635 -33.997  23.641  0.00  0.00    -0.296 N 
ATOM     54  H   SER A   8     -15.172 -34.446  24.410  0.00  0.00    +0.150 HD
ATOM     55  O   PHE A   7     -12.761 -34.092  22.381  0.00  0.00    -0.273 OA
BRANCH  53  56
ATOM     56  CA  SER A   8     -15.059 -32.681  23.144  0.00  0.00    +0.166 C 
BRANCH  56  57
ATOM     57  C   SER A   8     -14.078 -31.560  23.467  0.00  0.00    +0.229 C 
ATOM     58  O   SER A   8     -13.742 -30.749  22.607  0.00  0.00    -0.286 OA
ENDBRANCH  56  57
BRANCH  56  59
ATOM     59  CB  SER A   8     -16.437 -32.309  23.711  0.00  0.00    +0.165 C 
BRANCH  59  60
ATOM     60  OG  SER A   8     -17.437 -33.210  23.241  0.00  0.00    -0.380 OA
ATOM     61  H   SER A   8     -18.315 -32.952  23.618  0.00  0.00    +0.211 HD
ENDBRANCH  59  60
ENDBRANCH  56  59
ENDBRANCH  53  56
ENDBRANCH  51  52
BRANCH  51  62
ATOM     62  CB  PHE A   7     -12.368 -36.216  24.669  0.00  0.00    +0.055 C 
BRANCH  62  63
ATOM     63  CG  PHE A   7     -11.818 -37.585  24.769  0.00  0.00    -0.020 A 
ATOM     64  CD2 PHE A   7     -12.645 -38.643  25.123  0.00  0.00    -0.004 A 
ATOM     65  CE2 PHE A   7     -12.154 -39.946  25.171  0.00  0.00    -0.000 A 
ATOM     66  CZ  PHE A   7     -10.814 -40.189  24.867  0.00  0.00    -0.000 A 
ATOM     67  CE1 PHE A   7      -9.985 -39.140  24.503  0.00  0.00    -0.000 A 
ATOM     68  CD1 PHE A   7     -10.495 -37.844  24.444  0.00  0.00    -0.004 A 
ENDBRANCH  62  63
ENDBRANCH  51  62
ENDBRANCH  49  51
ENDBRANCH  46  47
BRANCH  46  69
ATOM     69  CB  ARG A   6     -13.432 -38.333  19.528  0.00  0.00    +0.033 C 
BRANCH  69  70
ATOM     70  CG  ARG A   6     -12.633 -38.693  18.284  0.00  0.00    +0.045 C 
BRANCH  70  71
ATOM     71  CD  ARG A   6     -11.300 -37.951  18.177  0.00  0.00    +0.174 C 
BRANCH  71  72
ATOM     72  NE  ARG A   6     -10.659 -38.291  16.899  0.00  0.00    -0.265 N 
ATOM     73  CZ  ARG A   6      -9.869 -39.350  16.730  0.00  0.00    +0.342 C 
ATOM     74  NH2 ARG A   6      -9.589 -40.154  17.760  0.00  0.00    -0.292 N 
ATOM     75 HH21 ARG A   6      -9.989 -39.954  18.699  0.00  0.00    +0.255 HD
ATOM     76 HH22 ARG A   6      -8.972 -40.980  17.622  0.00  0.00    +0.255 HD
ATOM     77  NH1 ARG A   6      -9.341 -39.595  15.543  0.00  0.00    -0.292 N 
ATOM     78 HH11 ARG A   6      -8.724 -40.421  15.409  0.00  0.00    +0.255 HD
ATOM     79 HH12 ARG A   6      -9.543 -38.961  14.743  0.00  0.00    +0.255 HD
ATOM     80  HE  ARG A   6     -10.832 -37.671  16.082  0.00  0.00    +0.259 HD
ENDBRANCH  71  72
ENDBRANCH  70  71
ENDBRANCH  69  70
ENDBRANCH  46  69
ENDBRANCH  43  46
ENDBRANCH   1  42
BRANCH   1  81
ATOM     81  CB  PHE A   5     -10.594 -43.144  20.932  0.00  0.00    +0.055 C 
BRANCH  81  82
ATOM     82  CG  PHE A   5      -9.318 -43.209  21.763  0.00  0.00    -0.020 A 
ATOM     83  CD2 PHE A   5      -8.814 -42.077  22.376  0.00  0.00    -0.004 A 
ATOM     84  CE2 PHE A   5      -7.643 -42.144  23.176  0.00  0.00    -0.000 A 
ATOM     85  CZ  PHE A   5      -6.965 -43.350  23.316  0.00  0.00    -0.000 A 
ATOM     86  CE1 PHE A   5      -7.454 -44.494  22.678  0.00  0.00    -0.000 A 
ATOM     87  CD1 PHE A   5      -8.620 -44.414  21.910  0.00  0.00    -0.004 A 
ENDBRANCH  81  82
ENDBRANCH   1  81
TORSDOF 35
REMARK  Name = ../refined-set-2016/4m0e/4m0e_pocket.pdb
REMARK  147 active torsions:
REMARK  status: ('A' for Active; 'I' for Inactive)
REMARK    1  A    between atoms: _1  and  _3
REMARK    2  A    between atoms: _3  and  _4
REMARK    3  A    between atoms: _3  and  _6
REMARK    4  A    between atoms: _6  and  _7
REMARK    5  A    between atoms: _12  and  _13
REMARK    6  A    between atoms: _15  and  _17
REMARK    7  A    between atoms: _17  and  _18
REMARK    8  A    between atoms: _17  and  _20
REMARK    9  A    between atoms: _23  and  _25
REMARK   10  A    between atoms: _25  and  _26
REMARK   11  A    between atoms: _25  and  _28
REMARK   12  A    between atoms: _28  and  _29
REMARK   13  A    between atoms: _32  and  _34
REMARK   14  A    between atoms: _34  and  _35
REMARK   15  A    between atoms: _34  and  _37
REMARK   16  A    between atoms: _37  and  _38
REMARK   17  A    between atoms: _41  and  _43
REMARK   18  A    between atoms: _43  and  _44
REMARK   19  A    between atoms: _43  and  _46
REMARK   20  A    between atoms: _46  and  _47
REMARK   21  A    between atoms: _50  and  _52
REMARK   22  A    between atoms: _52  and  _53
REMARK   23  A    between atoms: _52  and  _55
REMARK   24  A    between atoms: _55  and  _56
REMARK   25  A    between atoms: _59  and  _61
REMARK   26  A    between atoms: _61  and  _62
REMARK   27  A    between atoms: _61  and  _64
REMARK   28  A    between atoms: _64  and  _65
REMARK   29  A    between atoms: _75  and  _77
REMARK   30  A    between atoms: _77  and  _78
REMARK   31  A    between atoms: _80  and  _82
REMARK   32  A    between atoms: _82  and  _83
REMARK   33  A    between atoms: _85  and  _87
REMARK   34  A    between atoms: _87  and  _88
REMARK   35  A    between atoms: _87  and  _90
REMARK   36  A    between atoms: _90  and  _91
REMARK   37  A    between atoms: _96  and  _97
REMARK   38  A    between atoms: _99  and  _101
REMARK   39  A    between atoms: _101  and  _102
REMARK   40  A    between atoms: _101  and  _104
REMARK   41  A    between atoms: _104  and  _105
REMARK   42  A    between atoms: _107  and  _109
REMARK   43  A    between atoms: _109  and  _110
REMARK   44  A    between atoms: _109  and  _112
REMARK   45  A    between atoms: _112  and  _113
REMARK   46  A    between atoms: _115  and  _117
REMARK   47  A    between atoms: _117  and  _118
REMARK   48  A    between atoms: _117  and  _120
REMARK   49  A    between atoms: _123  and  _125
REMARK   50  A    between atoms: _125  and  _126
REMARK   51  A    between atoms: _125  and  _128
REMARK   52  A    between atoms: _128  and  _129
REMARK   53  A    between atoms: _134  and  _136
REMARK   54  A    between atoms: _136  and  _137
REMARK   55  A    between atoms: _136  and  _139
REMARK   56  A    between atoms: _139  and  _140
REMARK   57  A    between atoms: _140  and  _141
REMARK   58  A    between atoms: _144  and  _146
REMARK   59  A    between atoms: _146  and  _147
REMARK   60  A    between atoms: _146  and  _149
REMARK   61  A    between atoms: _149  and  _150
REMARK   62  A    between atoms: _160  and  _162
REMARK   63  A    between atoms: _162  and  _163
REMARK   64  A    between atoms: _162  and  _165
REMARK   65  A    between atoms: _165  and  _166
REMARK   66  A    between atoms: _171  and  _173
REMARK   67  A    between atoms: _173  and  _174
REMARK   68  A    between atoms: _173  and  _176
REMARK   69  A    between atoms: _176  and  _177
REMARK   70  A    between atoms: _180  and  _182
REMARK   71  A    between atoms: _182  and  _183
REMARK   72  A    between atoms: _182  and  _185
REMARK   73  A    between atoms: _185  and  _186
REMARK   74  A    between atoms: _186  and  _187
REMARK   75  A    between atoms: _192  and  _194
REMARK   76  A    between atoms: _194  and  _195
REMARK   77  A    between atoms: _194  and  _197
REMARK   78  A    between atoms: _197  and  _198
REMARK   79  A    between atoms: _198  and  _199
REMARK   80  A    between atoms: _202  and  _204
REMARK   81  A    between atoms: _204  and  _205
REMARK   82  A    between atoms: _204  and  _207
REMARK   83  A    between atoms: _207  and  _208
REMARK   84  A    between atoms: _210  and  _212
REMARK   85  A    between atoms: _212  and  _213
REMARK   86  A    between atoms: _212  and  _215
REMARK   87  A    between atoms: _218  and  _220
REMARK   88  A    between atoms: _220  and  _221
REMARK   89  A    between atoms: _220  and  _223
REMARK   90  A    between atoms: _223  and  _224
REMARK   91  A    between atoms: _230  and  _232
REMARK   92  A    between atoms: _232  and  _233
REMARK   93  A    between atoms: _232  and  _235
REMARK   94  A    between atoms: _235  and  _236
REMARK   95  A    between atoms: _236  and  _237
REMARK   96  A    between atoms: _237  and  _238
REMARK   97  A    between atoms: _247  and  _249
REMARK   98  A    between atoms: _249  and  _250
REMARK   99  A    between atoms: _249  and  _252
REMARK  100  A    between atoms: _252  and  _253
REMARK  101  A    between atoms: _259  and  _261
REMARK  102  A    between atoms: _261  and  _262
REMARK  103  A    between atoms: _261  and  _264
REMARK  104  A    between atoms: _264  and  _265
REMARK  105  A    between atoms: _267  and  _269
REMARK  106  A    between atoms: _269  and  _270
REMARK  107  A    between atoms: _269  and  _272
REMARK  108  A    between atoms: _272  and  _273
REMARK  109  A    between atoms: _278  and  _279
REMARK  110  A    between atoms: _281  and  _283
REMARK  111  A    between atoms: _283  and  _284
REMARK  112  A    between atoms: _283  and  _286
REMARK  113  A    between atoms: _286  and  _287
REMARK  114  A    between atoms: _293  and  _295
REMARK  115  A    between atoms: _295  and  _296
REMARK  116  A    between atoms: _295  and  _298
REMARK  117  A    between atoms: _298  and  _299
REMARK  118  A    between atoms: _302  and  _304
REMARK  119  A    between atoms: _304  and  _305
REMARK  120  A    between atoms: _304  and  _307
REMARK  121  A    between atoms: _310  and  _312
REMARK  122  A    between atoms: _312  and  _313
REMARK  123  A    between atoms: _312  and  _315
REMARK  124  A    between atoms: _315  and  _316
REMARK  125  A    between atoms: _321  and  _322
REMARK  126  A    between atoms: _324  and  _326
REMARK  127  A    between atoms: _326  and  _327
REMARK  128  A    between atoms: _329  and  _331
REMARK  129  A    between atoms: _331  and  _332
REMARK  130  A    between atoms: _335  and  _337
REMARK  131  A    between atoms: _337  and  _338
REMARK  132  A    between atoms: _337  and  _340
REMARK  133  A    between atoms: _343  and  _345
REMARK  134  A    between atoms: _345  and  _346
REMARK  135  A    between atoms: _345  and  _348
REMARK  136  A    between atoms: _351  and  _353
REMARK  137  A    between atoms: _353  and  _354
REMARK  138  A    between atoms: _353  and  _356
REMARK  139  A    between atoms: _356  and  _357
REMARK  140  A    between atoms: _362  and  _364
REMARK  141  A    between atoms: _364  and  _365
REMARK  142  A    between atoms: _364  and  _367
REMARK  143  A    between atoms: _367  and  _368
REMARK  144  A    between atoms: _378  and  _380
REMARK  145  A    between atoms: _380  and  _381
REMARK  146  A    between atoms: _380  and  _383
REMARK  147  A    between atoms: _383  and  _384
REMARK                            x       y       z     vdW  Elec       q    Type
REMARK                         _______ _______ _______ _____ _____    ______ ____
ROOT
ATOM      1  C   LEU A   3     -16.205 -50.705  21.993  0.00  0.00    +0.241 C 
ATOM      2  N   VAL A   4     -16.284 -50.974  23.299  0.00  0.00    -0.297 N 
ATOM      3  H   VAL A   4     -15.418 -51.076  23.866  0.00  0.00    +0.150 HD
ATOM      4  O   LEU A   3     -17.207 -50.554  21.296  0.00  0.00    -0.273 OA
ENDROOT
BRANCH   2   5
ATOM      5  CA  VAL A   4     -17.600 -51.125  23.928  0.00  0.00    +0.149 C 
BRANCH   5   6
ATOM      6  C   VAL A   4     -18.342 -49.810  24.090  0.00  0.00    +0.241 C 
ATOM      7  O   VAL A   4     -19.522 -49.798  24.426  0.00  0.00    -0.273 OA
ATOM      8  N   TYR A   5     -17.669 -48.702  23.803  0.00  0.00    -0.297 N 
ATOM      9  H   TYR A   5     -16.676 -48.771  23.502  0.00  0.00    +0.150 HD
BRANCH   8  10
ATOM     10  CA  TYR A   5     -18.304 -47.376  23.904  0.00  0.00    +0.153 C 
BRANCH  10  11
ATOM     11  C   TYR A   5     -18.896 -46.862  22.611  0.00  0.00    +0.241 C 
ATOM     12  O   TYR A   5     -19.132 -45.652  22.480  0.00  0.00    -0.273 OA
ATOM     13  N   GLY A   6     -19.146 -47.754  21.648  0.00  0.00    -0.295 N 
ATOM     14  H   GLY A   6     -18.914 -48.759  21.779  0.00  0.00    +0.150 HD
BRANCH  13  15
ATOM     15  CA  GLY A   6     -19.750 -47.285  20.414  0.00  0.00    +0.176 C 
BRANCH  15  16
ATOM     16  C   GLY A   6     -19.512 -48.049  19.111  0.00  0.00    +0.243 C 
ATOM     17  N   ALA A   7     -18.542 -48.954  19.044  0.00  0.00    -0.298 N 
ATOM     18  H   ALA A   7     -17.895 -49.092  19.846  0.00  0.00    +0.150 HD
ATOM     19  O   GLY A   6     -20.210 -47.796  18.155  0.00  0.00    -0.273 OA
BRANCH  17  20
ATOM     20  CA  ALA A   7     -18.395 -49.754  17.829  0.00  0.00    +0.137 C 
ATOM     21  CB  ALA A   7     -17.088 -50.504  17.829  0.00  0.00    +0.030 C 
BRANCH  20  22
ATOM     22  C   ALA A   7     -19.561 -50.744  17.766  0.00  0.00    +0.227 C 
ATOM     23  O   ALA A   7     -19.838 -51.427  18.748  0.00  0.00    -0.286 OA
ENDBRANCH  20  22
ENDBRANCH  17  20
ENDBRANCH  15  16
ENDBRANCH  13  15
ENDBRANCH  10  11
BRANCH  10  24
ATOM     24  CB  TYR A   5     -17.320 -46.332  24.474  0.00  0.00    +0.055 C 
BRANCH  24  25
ATOM     25  CG  TYR A   5     -17.167 -46.527  25.953  0.00  0.00    -0.020 A 
ATOM     26  CD2 TYR A   5     -18.001 -45.837  26.848  0.00  0.00    -0.001 A 
ATOM     27  CE2 TYR A   5     -17.910 -46.042  28.233  0.00  0.00    +0.036 A 
ATOM     28  CZ  TYR A   5     -17.006 -46.958  28.715  0.00  0.00    +0.134 A 
ATOM     29  CE1 TYR A   5     -16.175 -47.680  27.843  0.00  0.00    +0.036 A 
ATOM     30  CD1 TYR A   5     -16.270 -47.467  26.465  0.00  0.00    -0.001 A 
BRANCH  28  31
ATOM     31  OH  TYR A   5     -16.937 -47.163  30.072  0.00  0.00    -0.506 OA
ATOM     32  HH  TYR A   5     -17.589 -46.573  30.527  0.00  0.00    +0.292 HD
ENDBRANCH  28  31
ENDBRANCH  24  25
ENDBRANCH  10  24
ENDBRANCH   8  10
ENDBRANCH   5   6
BRANCH   5  33
ATOM     33  CB  VAL A   4     -17.540 -51.851  25.256  0.00  0.00    +0.027 C 
ATOM     34  CG2 VAL A   4     -16.704 -51.083  26.238  0.00  0.00    +0.002 C 
ATOM     35  CG1 VAL A   4     -17.009 -53.271  25.037  0.00  0.00    +0.002 C 
ENDBRANCH   5  33
ENDBRANCH   2   5
BRANCH   1  36
ATOM     36  CA  LEU A   3     -14.802 -50.548  21.379  0.00  0.00    +0.149 C 
BRANCH  36  39
ATOM     37  C   PHE A   2     -13.972 -48.744  22.785  0.00  0.00    +0.241 C 
ATOM     38  O   PHE A   2     -14.963 -48.041  22.557  0.00  0.00    -0.273 OA
ATOM     39  N   LEU A   3     -13.833 -49.981  22.325  0.00  0.00    -0.297 N 
ATOM     40  H   LEU A   3     -13.026 -50.557  22.639  0.00  0.00    +0.150 HD
BRANCH  37  41
ATOM     41  CA  PHE A   2     -12.820 -48.216  23.629  0.00  0.00    +0.153 C 
BRANCH  41  44
ATOM     42  C   TYR A   1     -12.493 -49.964  25.276  0.00  0.00    +0.239 C 
ATOM     43  O   TYR A   1     -13.649 -49.852  25.652  0.00  0.00    -0.274 OA
ATOM     44  N   PHE A   2     -12.021 -49.262  24.254  0.00  0.00    -0.297 N 
ATOM     45  H   PHE A   2     -11.066 -49.461  23.893  0.00  0.00    +0.150 HD
BRANCH  42  46
ATOM     46  CA  TYR A   1     -11.550 -50.974  25.949  0.00  0.00    +0.149 C 
BRANCH  46  47
ATOM     47  N   TYR A   1     -10.701 -51.684  24.997  0.00  0.00    -0.238 NA
ATOM     48  H   TYR A   1      -9.670 -51.649  25.129  0.00  0.00    +0.142 HD
ENDBRANCH  46  47
BRANCH  46  49
ATOM     49  CB  TYR A   1     -10.640 -50.308  26.997  0.00  0.00    +0.053 C 
BRANCH  49  50
ATOM     50  CG  TYR A   1     -11.237 -49.217  27.873  0.00  0.00    -0.020 A 
ATOM     51  CD2 TYR A   1     -11.980 -49.523  29.015  0.00  0.00    -0.001 A 
ATOM     52  CE2 TYR A   1     -12.495 -48.513  29.839  0.00  0.00    +0.036 A 
ATOM     53  CZ  TYR A   1     -12.245 -47.182  29.518  0.00  0.00    +0.134 A 
ATOM     54  CE1 TYR A   1     -11.481 -46.864  28.407  0.00  0.00    +0.036 A 
ATOM     55  CD1 TYR A   1     -10.979 -47.879  27.601  0.00  0.00    -0.001 A 
BRANCH  53  56
ATOM     56  OH  TYR A   1     -12.724 -46.152  30.300  0.00  0.00    -0.506 OA
ATOM     57  HH  TYR A   1     -13.248 -46.526  31.052  0.00  0.00    +0.292 HD
ENDBRANCH  53  56
ENDBRANCH  49  50
ENDBRANCH  46  49
ENDBRANCH  42  46
ENDBRANCH  41  44
BRANCH  41  58
ATOM     58  CB  PHE A   2     -11.905 -47.316  22.777  0.00  0.00    +0.055 C 
BRANCH  58  59
ATOM     59  CG  PHE A   2     -10.816 -46.690  23.590  0.00  0.00    -0.020 A 
ATOM     60  CD2 PHE A   2     -11.038 -45.473  24.234  0.00  0.00    -0.004 A 
ATOM     61  CE2 PHE A   2     -10.054 -44.907  25.060  0.00  0.00    -0.000 A 
ATOM     62  CZ  PHE A   2      -8.864 -45.576  25.256  0.00  0.00    -0.000 A 
ATOM     63  CE1 PHE A   2      -8.632 -46.802  24.616  0.00  0.00    -0.000 A 
ATOM     64  CD1 PHE A   2      -9.621 -47.357  23.788  0.00  0.00    -0.004 A 
ENDBRANCH  58  59
ENDBRANCH  41  58
ENDBRANCH  37  41
ENDBRANCH  36  39
BRANCH  36  65
ATOM     65  CB  LEU A   3     -14.292 -51.884  20.847  0.00  0.00    +0.029 C 
BRANCH  65  66
ATOM     66  CG  LEU A   3     -12.973 -51.759  20.064  0.00  0.00    +0.002 C 
ATOM     67  CD2 LEU A   3     -12.522 -53.131  19.554  0.00  0.00    +0.000 C 
ATOM     68  CD1 LEU A   3     -13.158 -50.829  18.912  0.00  0.00    +0.000 C 
ENDBRANCH  65  66
ENDBRANCH  36  65
ENDBRANCH   1  36
TORSDOF 25
REMARK  Name = ../refined-set-2016/4m0e/4m0e_pocket.pdb
REMARK  147 active torsions:
REMARK  status: ('A' for Active; 'I' for Inactive)
REMARK    1  A    between atoms: _1  and  _3
REMARK    2  A    between atoms: _3  and  _4
REMARK    3  A    between atoms: _3  and  _6
REMARK    4  A    between atoms: _6  and  _7
REMARK    5  A    between atoms: _12  and  _13
REMARK    6  A    between atoms: _15  and  _17
REMARK    7  A    between atoms: _17  and  _18
REMARK    8  A    between atoms: _17  and  _20
REMARK    9  A    between atoms: _23  and  _25
REMARK   10  A    between atoms: _25  and  _26
REMARK   11  A    between atoms: _25  and  _28
REMARK   12  A    between atoms: _28  and  _29
REMARK   13  A    between atoms: _32  and  _34
REMARK   14  A    between atoms: _34  and  _35
REMARK   15  A    between atoms: _34  and  _37
REMARK   16  A    between atoms: _37  and  _38
REMARK   17  A    between atoms: _41  and  _43
REMARK   18  A    between atoms: _43  and  _44
REMARK   19  A    between atoms: _43  and  _46
REMARK   20  A    between atoms: _46  and  _47
REMARK   21  A    between atoms: _50  and  _52
REMARK   22  A    between atoms: _52  and  _53
REMARK   23  A    between atoms: _52  and  _55
REMARK   24  A    between atoms: _55  and  _56
REMARK   25  A    between atoms: _59  and  _61
REMARK   26  A    between atoms: _61  and  _62
REMARK   27  A    between atoms: _61  and  _64
REMARK   28  A    between atoms: _64  and  _65
REMARK   29  A    between atoms: _75  and  _77
REMARK   30  A    between atoms: _77  and  _78
REMARK   31  A    between atoms: _80  and  _82
REMARK   32  A    between atoms: _82  and  _83
REMARK   33  A    between atoms: _85  and  _87
REMARK   34  A    between atoms: _87  and  _88
REMARK   35  A    between atoms: _87  and  _90
REMARK   36  A    between atoms: _90  and  _91
REMARK   37  A    between atoms: _96  and  _97
REMARK   38  A    between atoms: _99  and  _101
REMARK   39  A    between atoms: _101  and  _102
REMARK   40  A    between atoms: _101  and  _104
REMARK   41  A    between atoms: _104  and  _105
REMARK   42  A    between atoms: _107  and  _109
REMARK   43  A    between atoms: _109  and  _110
REMARK   44  A    between atoms: _109  and  _112
REMARK   45  A    between atoms: _112  and  _113
REMARK   46  A    between atoms: _115  and  _117
REMARK   47  A    between atoms: _117  and  _118
REMARK   48  A    between atoms: _117  and  _120
REMARK   49  A    between atoms: _123  and  _125
REMARK   50  A    between atoms: _125  and  _126
REMARK   51  A    between atoms: _125  and  _128
REMARK   52  A    between atoms: _128  and  _129
REMARK   53  A    between atoms: _134  and  _136
REMARK   54  A    between atoms: _136  and  _137
REMARK   55  A    between atoms: _136  and  _139
REMARK   56  A    between atoms: _139  and  _140
REMARK   57  A    between atoms: _140  and  _141
REMARK   58  A    between atoms: _144  and  _146
REMARK   59  A    between atoms: _146  and  _147
REMARK   60  A    between atoms: _146  and  _149
REMARK   61  A    between atoms: _149  and  _150
REMARK   62  A    between atoms: _160  and  _162
REMARK   63  A    between atoms: _162  and  _163
REMARK   64  A    between atoms: _162  and  _165
REMARK   65  A    between atoms: _165  and  _166
REMARK   66  A    between atoms: _171  and  _173
REMARK   67  A    between atoms: _173  and  _174
REMARK   68  A    between atoms: _173  and  _176
REMARK   69  A    between atoms: _176  and  _177
REMARK   70  A    between atoms: _180  and  _182
REMARK   71  A    between atoms: _182  and  _183
REMARK   72  A    between atoms: _182  and  _185
REMARK   73  A    between atoms: _185  and  _186
REMARK   74  A    between atoms: _186  and  _187
REMARK   75  A    between atoms: _192  and  _194
REMARK   76  A    between atoms: _194  and  _195
REMARK   77  A    between atoms: _194  and  _197
REMARK   78  A    between atoms: _197  and  _198
REMARK   79  A    between atoms: _198  and  _199
REMARK   80  A    between atoms: _202  and  _204
REMARK   81  A    between atoms: _204  and  _205
REMARK   82  A    between atoms: _204  and  _207
REMARK   83  A    between atoms: _207  and  _208
REMARK   84  A    between atoms: _210  and  _212
REMARK   85  A    between atoms: _212  and  _213
REMARK   86  A    between atoms: _212  and  _215
REMARK   87  A    between atoms: _218  and  _220
REMARK   88  A    between atoms: _220  and  _221
REMARK   89  A    between atoms: _220  and  _223
REMARK   90  A    between atoms: _223  and  _224
REMARK   91  A    between atoms: _230  and  _232
REMARK   92  A    between atoms: _232  and  _233
REMARK   93  A    between atoms: _232  and  _235
REMARK   94  A    between atoms: _235  and  _236
REMARK   95  A    between atoms: _236  and  _237
REMARK   96  A    between atoms: _237  and  _238
REMARK   97  A    between atoms: _247  and  _249
REMARK   98  A    between atoms: _249  and  _250
REMARK   99  A    between atoms: _249  and  _252
REMARK  100  A    between atoms: _252  and  _253
REMARK  101  A    between atoms: _259  and  _261
REMARK  102  A    between atoms: _261  and  _262
REMARK  103  A    between atoms: _261  and  _264
REMARK  104  A    between atoms: _264  and  _265
REMARK  105  A    between atoms: _267  and  _269
REMARK  106  A    between atoms: _269  and  _270
REMARK  107  A    between atoms: _269  and  _272
REMARK  108  A    between atoms: _272  and  _273
REMARK  109  A    between atoms: _278  and  _279
REMARK  110  A    between atoms: _281  and  _283
REMARK  111  A    between atoms: _283  and  _284
REMARK  112  A    between atoms: _283  and  _286
REMARK  113  A    between atoms: _286  and  _287
REMARK  114  A    between atoms: _293  and  _295
REMARK  115  A    between atoms: _295  and  _296
REMARK  116  A    between atoms: _295  and  _298
REMARK  117  A    between atoms: _298  and  _299
REMARK  118  A    between atoms: _302  and  _304
REMARK  119  A    between atoms: _304  and  _305
REMARK  120  A    between atoms: _304  and  _307
REMARK  121  A    between atoms: _310  and  _312
REMARK  122  A    between atoms: _312  and  _313
REMARK  123  A    between atoms: _312  and  _315
REMARK  124  A    between atoms: _315  and  _316
REMARK  125  A    between atoms: _321  and  _322
REMARK  126  A    between atoms: _324  and  _326
REMARK  127  A    between atoms: _326  and  _327
REMARK  128  A    between atoms: _329  and  _331
REMARK  129  A    between atoms: _331  and  _332
REMARK  130  A    between atoms: _335  and  _337
REMARK  131  A    between atoms: _337  and  _338
REMARK  132  A    between atoms: _337  and  _340
REMARK  133  A    between atoms: _343  and  _345
REMARK  134  A    between atoms: _345  and  _346
REMARK  135  A    between atoms: _345  and  _348
REMARK  136  A    between atoms: _351  and  _353
REMARK  137  A    between atoms: _353  and  _354
REMARK  138  A    between atoms: _353  and  _356
REMARK  139  A    between atoms: _356  and  _357
REMARK  140  A    between atoms: _362  and  _364
REMARK  141  A    between atoms: _364  and  _365
REMARK  142  A    between atoms: _364  and  _367
REMARK  143  A    between atoms: _367  and  _368
REMARK  144  A    between atoms: _378  and  _380
REMARK  145  A    between atoms: _380  and  _381
REMARK  146  A    between atoms: _380  and  _383
REMARK  147  A    between atoms: _383  and  _384
REMARK                            x       y       z     vdW  Elec       q    Type
REMARK                         _______ _______ _______ _____ _____    ______ ____
ROOT
ATOM      1  CA  VAL A   1     -16.662 -44.901  14.333  0.00  0.00    +0.133 C 
ENDROOT
BRANCH   1   2
ATOM      2  CB  VAL A   1     -17.497 -45.893  15.167  0.00  0.00    +0.023 C 
ATOM      3  CG2 VAL A   1     -17.513 -45.480  16.666  0.00  0.00    +0.002 C 
ATOM      4  CG1 VAL A   1     -18.943 -45.970  14.617  0.00  0.00    +0.002 C 
ENDBRANCH   1   2
BRANCH   1   5
ATOM      5  N   VAL A   1     -16.467 -45.359  12.948  0.00  0.00    -0.239 NA
ATOM      6  H   VAL A   1     -16.601 -46.362  12.708  0.00  0.00    +0.142 HD
ENDBRANCH   1   5
BRANCH   1   7
ATOM      7  C   VAL A   1     -15.287 -44.694  14.982  0.00  0.00    +0.224 C 
ATOM      8  O   VAL A   1     -15.072 -43.727  15.721  0.00  0.00    -0.287 OA
ENDBRANCH   1   7
TORSDOF 3
REMARK  Name = ../refined-set-2016/4m0e/4m0e_pocket.pdb
REMARK  147 active torsions:
REMARK  status: ('A' for Active; 'I' for Inactive)
REMARK    1  A    between atoms: _1  and  _3
REMARK    2  A    between atoms: _3  and  _4
REMARK    3  A    between atoms: _3  and  _6
REMARK    4  A    between atoms: _6  and  _7
REMARK    5  A    between atoms: _12  and  _13
REMARK    6  A    between atoms: _15  and  _17
REMARK    7  A    between atoms: _17  and  _18
REMARK    8  A    between atoms: _17  and  _20
REMARK    9  A    between atoms: _23  and  _25
REMARK   10  A    between atoms: _25  and  _26
REMARK   11  A    between atoms: _25  and  _28
REMARK   12  A    between atoms: _28  and  _29
REMARK   13  A    between atoms: _32  and  _34
REMARK   14  A    between atoms: _34  and  _35
REMARK   15  A    between atoms: _34  and  _37
REMARK   16  A    between atoms: _37  and  _38
REMARK   17  A    between atoms: _41  and  _43
REMARK   18  A    between atoms: _43  and  _44
REMARK   19  A    between atoms: _43  and  _46
REMARK   20  A    between atoms: _46  and  _47
REMARK   21  A    between atoms: _50  and  _52
REMARK   22  A    between atoms: _52  and  _53
REMARK   23  A    between atoms: _52  and  _55
REMARK   24  A    between atoms: _55  and  _56
REMARK   25  A    between atoms: _59  and  _61
REMARK   26  A    between atoms: _61  and  _62
REMARK   27  A    between atoms: _61  and  _64
REMARK   28  A    between atoms: _64  and  _65
REMARK   29  A    between atoms: _75  and  _77
REMARK   30  A    between atoms: _77  and  _78
REMARK   31  A    between atoms: _80  and  _82
REMARK   32  A    between atoms: _82  and  _83
REMARK   33  A    between atoms: _85  and  _87
REMARK   34  A    between atoms: _87  and  _88
REMARK   35  A    between atoms: _87  and  _90
REMARK   36  A    between atoms: _90  and  _91
REMARK   37  A    between atoms: _96  and  _97
REMARK   38  A    between atoms: _99  and  _101
REMARK   39  A    between atoms: _101  and  _102
REMARK   40  A    between atoms: _101  and  _104
REMARK   41  A    between atoms: _104  and  _105
REMARK   42  A    between atoms: _107  and  _109
REMARK   43  A    between atoms: _109  and  _110
REMARK   44  A    between atoms: _109  and  _112
REMARK   45  A    between atoms: _112  and  _113
REMARK   46  A    between atoms: _115  and  _117
REMARK   47  A    between atoms: _117  and  _118
REMARK   48  A    between atoms: _117  and  _120
REMARK   49  A    between atoms: _123  and  _125
REMARK   50  A    between atoms: _125  and  _126
REMARK   51  A    between atoms: _125  and  _128
REMARK   52  A    between atoms: _128  and  _129
REMARK   53  A    between atoms: _134  and  _136
REMARK   54  A    between atoms: _136  and  _137
REMARK   55  A    between atoms: _136  and  _139
REMARK   56  A    between atoms: _139  and  _140
REMARK   57  A    between atoms: _140  and  _141
REMARK   58  A    between atoms: _144  and  _146
REMARK   59  A    between atoms: _146  and  _147
REMARK   60  A    between atoms: _146  and  _149
REMARK   61  A    between atoms: _149  and  _150
REMARK   62  A    between atoms: _160  and  _162
REMARK   63  A    between atoms: _162  and  _163
REMARK   64  A    between atoms: _162  and  _165
REMARK   65  A    between atoms: _165  and  _166
REMARK   66  A    between atoms: _171  and  _173
REMARK   67  A    between atoms: _173  and  _174
REMARK   68  A    between atoms: _173  and  _176
REMARK   69  A    between atoms: _176  and  _177
REMARK   70  A    between atoms: _180  and  _182
REMARK   71  A    between atoms: _182  and  _183
REMARK   72  A    between atoms: _182  and  _185
REMARK   73  A    between atoms: _185  and  _186
REMARK   74  A    between atoms: _186  and  _187
REMARK   75  A    between atoms: _192  and  _194
REMARK   76  A    between atoms: _194  and  _195
REMARK   77  A    between atoms: _194  and  _197
REMARK   78  A    between atoms: _197  and  _198
REMARK   79  A    between atoms: _198  and  _199
REMARK   80  A    between atoms: _202  and  _204
REMARK   81  A    between atoms: _204  and  _205
REMARK   82  A    between atoms: _204  and  _207
REMARK   83  A    between atoms: _207  and  _208
REMARK   84  A    between atoms: _210  and  _212
REMARK   85  A    between atoms: _212  and  _213
REMARK   86  A    between atoms: _212  and  _215
REMARK   87  A    between atoms: _218  and  _220
REMARK   88  A    between atoms: _220  and  _221
REMARK   89  A    between atoms: _220  and  _223
REMARK   90  A    between atoms: _223  and  _224
REMARK   91  A    between atoms: _230  and  _232
REMARK   92  A    between atoms: _232  and  _233
REMARK   93  A    between atoms: _232  and  _235
REMARK   94  A    between atoms: _235  and  _236
REMARK   95  A    between atoms: _236  and  _237
REMARK   96  A    between atoms: _237  and  _238
REMARK   97  A    between atoms: _247  and  _249
REMARK   98  A    between atoms: _249  and  _250
REMARK   99  A    between atoms: _249  and  _252
REMARK  100  A    between atoms: _252  and  _253
REMARK  101  A    between atoms: _259  and  _261
REMARK  102  A    between atoms: _261  and  _262
REMARK  103  A    between atoms: _261  and  _264
REMARK  104  A    between atoms: _264  and  _265
REMARK  105  A    between atoms: _267  and  _269
REMARK  106  A    between atoms: _269  and  _270
REMARK  107  A    between atoms: _269  and  _272
REMARK  108  A    between atoms: _272  and  _273
REMARK  109  A    between atoms: _278  and  _279
REMARK  110  A    between atoms: _281  and  _283
REMARK  111  A    between atoms: _283  and  _284
REMARK  112  A    between atoms: _283  and  _286
REMARK  113  A    between atoms: _286  and  _287
REMARK  114  A    between atoms: _293  and  _295
REMARK  115  A    between atoms: _295  and  _296
REMARK  116  A    between atoms: _295  and  _298
REMARK  117  A    between atoms: _298  and  _299
REMARK  118  A    between atoms: _302  and  _304
REMARK  119  A    between atoms: _304  and  _305
REMARK  120  A    between atoms: _304  and  _307
REMARK  121  A    between atoms: _310  and  _312
REMARK  122  A    between atoms: _312  and  _313
REMARK  123  A    between atoms: _312  and  _315
REMARK  124  A    between atoms: _315  and  _316
REMARK  125  A    between atoms: _321  and  _322
REMARK  126  A    between atoms: _324  and  _326
REMARK  127  A    between atoms: _326  and  _327
REMARK  128  A    between atoms: _329  and  _331
REMARK  129  A    between atoms: _331  and  _332
REMARK  130  A    between atoms: _335  and  _337
REMARK  131  A    between atoms: _337  and  _338
REMARK  132  A    between atoms: _337  and  _340
REMARK  133  A    between atoms: _343  and  _345
REMARK  134  A    between atoms: _345  and  _346
REMARK  135  A    between atoms: _345  and  _348
REMARK  136  A    between atoms: _351  and  _353
REMARK  137  A    between atoms: _353  and  _354
REMARK  138  A    between atoms: _353  and  _356
REMARK  139  A    between atoms: _356  and  _357
REMARK  140  A    between atoms: _362  and  _364
REMARK  141  A    between atoms: _364  and  _365
REMARK  142  A    between atoms: _364  and  _367
REMARK  143  A    between atoms: _367  and  _368
REMARK  144  A    between atoms: _378  and  _380
REMARK  145  A    between atoms: _380  and  _381
REMARK  146  A    between atoms: _380  and  _383
REMARK  147  A    between atoms: _383  and  _384
REMARK                            x       y       z     vdW  Elec       q    Type
REMARK                         _______ _______ _______ _____ _____    ______ ____
ROOT
ATOM      1  CA  VAL A   1      -8.464 -48.023  17.198  0.00  0.00    +0.133 C 
ENDROOT
BRANCH   1   2
ATOM      2  CB  VAL A   1      -9.718 -48.354  18.054  0.00  0.00    +0.023 C 
ATOM      3  CG2 VAL A   1      -9.781 -47.454  19.322  0.00  0.00    +0.002 C 
ATOM      4  CG1 VAL A   1     -10.980 -48.167  17.187  0.00  0.00    +0.002 C 
ENDBRANCH   1   2
BRANCH   1   5
ATOM      5  N   VAL A   1      -8.214 -49.067  16.226  0.00  0.00    -0.239 NA
ATOM      6  H   VAL A   1      -8.712 -49.975  16.316  0.00  0.00    +0.142 HD
ENDBRANCH   1   5
BRANCH   1   7
ATOM      7  C   VAL A   1      -7.211 -47.805  18.048  0.00  0.00    +0.224 C 
ATOM      8  O   VAL A   1      -6.829 -46.659  18.270  0.00  0.00    -0.287 OA
ENDBRANCH   1   7
TORSDOF 3
REMARK  Name = ../refined-set-2016/4m0e/4m0e_pocket.pdb
REMARK  147 active torsions:
REMARK  status: ('A' for Active; 'I' for Inactive)
REMARK    1  A    between atoms: _1  and  _3
REMARK    2  A    between atoms: _3  and  _4
REMARK    3  A    between atoms: _3  and  _6
REMARK    4  A    between atoms: _6  and  _7
REMARK    5  A    between atoms: _12  and  _13
REMARK    6  A    between atoms: _15  and  _17
REMARK    7  A    between atoms: _17  and  _18
REMARK    8  A    between atoms: _17  and  _20
REMARK    9  A    between atoms: _23  and  _25
REMARK   10  A    between atoms: _25  and  _26
REMARK   11  A    between atoms: _25  and  _28
REMARK   12  A    between atoms: _28  and  _29
REMARK   13  A    between atoms: _32  and  _34
REMARK   14  A    between atoms: _34  and  _35
REMARK   15  A    between atoms: _34  and  _37
REMARK   16  A    between atoms: _37  and  _38
REMARK   17  A    between atoms: _41  and  _43
REMARK   18  A    between atoms: _43  and  _44
REMARK   19  A    between atoms: _43  and  _46
REMARK   20  A    between atoms: _46  and  _47
REMARK   21  A    between atoms: _50  and  _52
REMARK   22  A    between atoms: _52  and  _53
REMARK   23  A    between atoms: _52  and  _55
REMARK   24  A    between atoms: _55  and  _56
REMARK   25  A    between atoms: _59  and  _61
REMARK   26  A    between atoms: _61  and  _62
REMARK   27  A    between atoms: _61  and  _64
REMARK   28  A    between atoms: _64  and  _65
REMARK   29  A    between atoms: _75  and  _77
REMARK   30  A    between atoms: _77  and  _78
REMARK   31  A    between atoms: _80  and  _82
REMARK   32  A    between atoms: _82  and  _83
REMARK   33  A    between atoms: _85  and  _87
REMARK   34  A    between atoms: _87  and  _88
REMARK   35  A    between atoms: _87  and  _90
REMARK   36  A    between atoms: _90  and  _91
REMARK   37  A    between atoms: _96  and  _97
REMARK   38  A    between atoms: _99  and  _101
REMARK   39  A    between atoms: _101  and  _102
REMARK   40  A    between atoms: _101  and  _104
REMARK   41  A    between atoms: _104  and  _105
REMARK   42  A    between atoms: _107  and  _109
REMARK   43  A    between atoms: _109  and  _110
REMARK   44  A    between atoms: _109  and  _112
REMARK   45  A    between atoms: _112  and  _113
REMARK   46  A    between atoms: _115  and  _117
REMARK   47  A    between atoms: _117  and  _118
REMARK   48  A    between atoms: _117  and  _120
REMARK   49  A    between atoms: _123  and  _125
REMARK   50  A    between atoms: _125  and  _126
REMARK   51  A    between atoms: _125  and  _128
REMARK   52  A    between atoms: _128  and  _129
REMARK   53  A    between atoms: _134  and  _136
REMARK   54  A    between atoms: _136  and  _137
REMARK   55  A    between atoms: _136  and  _139
REMARK   56  A    between atoms: _139  and  _140
REMARK   57  A    between atoms: _140  and  _141
REMARK   58  A    between atoms: _144  and  _146
REMARK   59  A    between atoms: _146  and  _147
REMARK   60  A    between atoms: _146  and  _149
REMARK   61  A    between atoms: _149  and  _150
REMARK   62  A    between atoms: _160  and  _162
REMARK   63  A    between atoms: _162  and  _163
REMARK   64  A    between atoms: _162  and  _165
REMARK   65  A    between atoms: _165  and  _166
REMARK   66  A    between atoms: _171  and  _173
REMARK   67  A    between atoms: _173  and  _174
REMARK   68  A    between atoms: _173  and  _176
REMARK   69  A    between atoms: _176  and  _177
REMARK   70  A    between atoms: _180  and  _182
REMARK   71  A    between atoms: _182  and  _183
REMARK   72  A    between atoms: _182  and  _185
REMARK   73  A    between atoms: _185  and  _186
REMARK   74  A    between atoms: _186  and  _187
REMARK   75  A    between atoms: _192  and  _194
REMARK   76  A    between atoms: _194  and  _195
REMARK   77  A    between atoms: _194  and  _197
REMARK   78  A    between atoms: _197  and  _198
REMARK   79  A    between atoms: _198  and  _199
REMARK   80  A    between atoms: _202  and  _204
REMARK   81  A    between atoms: _204  and  _205
REMARK   82  A    between atoms: _204  and  _207
REMARK   83  A    between atoms: _207  and  _208
REMARK   84  A    between atoms: _210  and  _212
REMARK   85  A    between atoms: _212  and  _213
REMARK   86  A    between atoms: _212  and  _215
REMARK   87  A    between atoms: _218  and  _220
REMARK   88  A    between atoms: _220  and  _221
REMARK   89  A    between atoms: _220  and  _223
REMARK   90  A    between atoms: _223  and  _224
REMARK   91  A    between atoms: _230  and  _232
REMARK   92  A    between atoms: _232  and  _233
REMARK   93  A    between atoms: _232  and  _235
REMARK   94  A    between atoms: _235  and  _236
REMARK   95  A    between atoms: _236  and  _237
REMARK   96  A    between atoms: _237  and  _238
REMARK   97  A    between atoms: _247  and  _249
REMARK   98  A    between atoms: _249  and  _250
REMARK   99  A    between atoms: _249  and  _252
REMARK  100  A    between atoms: _252  and  _253
REMARK  101  A    between atoms: _259  and  _261
REMARK  102  A    between atoms: _261  and  _262
REMARK  103  A    between atoms: _261  and  _264
REMARK  104  A    between atoms: _264  and  _265
REMARK  105  A    between atoms: _267  and  _269
REMARK  106  A    between atoms: _269  and  _270
REMARK  107  A    between atoms: _269  and  _272
REMARK  108  A    between atoms: _272  and  _273
REMARK  109  A    between atoms: _278  and  _279
REMARK  110  A    between atoms: _281  and  _283
REMARK  111  A    between atoms: _283  and  _284
REMARK  112  A    between atoms: _283  and  _286
REMARK  113  A    between atoms: _286  and  _287
REMARK  114  A    between atoms: _293  and  _295
REMARK  115  A    between atoms: _295  and  _296
REMARK  116  A    between atoms: _295  and  _298
REMARK  117  A    between atoms: _298  and  _299
REMARK  118  A    between atoms: _302  and  _304
REMARK  119  A    between atoms: _304  and  _305
REMARK  120  A    between atoms: _304  and  _307
REMARK  121  A    between atoms: _310  and  _312
REMARK  122  A    between atoms: _312  and  _313
REMARK  123  A    between atoms: _312  and  _315
REMARK  124  A    between atoms: _315  and  _316
REMARK  125  A    between atoms: _321  and  _322
REMARK  126  A    between atoms: _324  and  _326
REMARK  127  A    between atoms: _326  and  _327
REMARK  128  A    between atoms: _329  and  _331
REMARK  129  A    between atoms: _331  and  _332
REMARK  130  A    between atoms: _335  and  _337
REMARK  131  A    between atoms: _337  and  _338
REMARK  132  A    between atoms: _337  and  _340
REMARK  133  A    between atoms: _343  and  _345
REMARK  134  A    between atoms: _345  and  _346
REMARK  135  A    between atoms: _345  and  _348
REMARK  136  A    between atoms: _351  and  _353
REMARK  137  A    between atoms: _353  and  _354
REMARK  138  A    between atoms: _353  and  _356
REMARK  139  A    between atoms: _356  and  _357
REMARK  140  A    between atoms: _362  and  _364
REMARK  141  A    between atoms: _364  and  _365
REMARK  142  A    between atoms: _364  and  _367
REMARK  143  A    between atoms: _367  and  _368
REMARK  144  A    between atoms: _378  and  _380
REMARK  145  A    between atoms: _380  and  _381
REMARK  146  A    between atoms: _380  and  _383
REMARK  147  A    between atoms: _383  and  _384
REMARK                            x       y       z     vdW  Elec       q    Type
REMARK                         _______ _______ _______ _____ _____    ______ ____
ROOT
ATOM      1  CB  ASN A   1      -6.223 -43.592  19.543  0.00  0.00    +0.110 C 
ENDROOT
BRANCH   1   2
ATOM      2  CG  ASN A   1      -7.448 -43.153  18.745  0.00  0.00    +0.221 C 
ATOM      3  OD1 ASN A   1      -7.647 -41.967  18.492  0.00  0.00    -0.275 OA
ATOM      4  ND2 ASN A   1      -8.270 -44.108  18.352  0.00  0.00    -0.329 N 
ATOM      5 HD21 ASN A   1      -8.065 -45.100  18.587  0.00  0.00    +0.145 HD
ATOM      6 HD22 ASN A   1      -9.123 -43.868  17.807  0.00  0.00    +0.145 HD
ENDBRANCH   1   2
BRANCH   1   7
ATOM      7  CA  ASN A   1      -4.911 -43.360  18.772  0.00  0.00    +0.142 C 
BRANCH   7   8
ATOM      8  N   ASN A   1      -4.825 -44.298  17.638  0.00  0.00    -0.239 NA
ATOM      9  H   ASN A   1      -5.189 -45.267  17.739  0.00  0.00    +0.142 HD
ENDBRANCH   7   8
BRANCH   7  10
ATOM     10  C   ASN A   1      -3.734 -43.415  19.763  0.00  0.00    +0.225 C 
ATOM     11  O   ASN A   1      -3.437 -42.416  20.415  0.00  0.00    -0.287 OA
ENDBRANCH   7  10
ENDBRANCH   1   7
TORSDOF 4
REMARK  Name = ../refined-set-2016/4m0e/4m0e_pocket.pdb
REMARK  147 active torsions:
REMARK  status: ('A' for Active; 'I' for Inactive)
REMARK    1  A    between atoms: _1  and  _3
REMARK    2  A    between atoms: _3  and  _4
REMARK    3  A    between atoms: _3  and  _6
REMARK    4  A    between atoms: _6  and  _7
REMARK    5  A    between atoms: _12  and  _13
REMARK    6  A    between atoms: _15  and  _17
REMARK    7  A    between atoms: _17  and  _18
REMARK    8  A    between atoms: _17  and  _20
REMARK    9  A    between atoms: _23  and  _25
REMARK   10  A    between atoms: _25  and  _26
REMARK   11  A    between atoms: _25  and  _28
REMARK   12  A    between atoms: _28  and  _29
REMARK   13  A    between atoms: _32  and  _34
REMARK   14  A    between atoms: _34  and  _35
REMARK   15  A    between atoms: _34  and  _37
REMARK   16  A    between atoms: _37  and  _38
REMARK   17  A    between atoms: _41  and  _43
REMARK   18  A    between atoms: _43  and  _44
REMARK   19  A    between atoms: _43  and  _46
REMARK   20  A    between atoms: _46  and  _47
REMARK   21  A    between atoms: _50  and  _52
REMARK   22  A    between atoms: _52  and  _53
REMARK   23  A    between atoms: _52  and  _55
REMARK   24  A    between atoms: _55  and  _56
REMARK   25  A    between atoms: _59  and  _61
REMARK   26  A    between atoms: _61  and  _62
REMARK   27  A    between atoms: _61  and  _64
REMARK   28  A    between atoms: _64  and  _65
REMARK   29  A    between atoms: _75  and  _77
REMARK   30  A    between atoms: _77  and  _78
REMARK   31  A    between atoms: _80  and  _82
REMARK   32  A    between atoms: _82  and  _83
REMARK   33  A    between atoms: _85  and  _87
REMARK   34  A    between atoms: _87  and  _88
REMARK   35  A    between atoms: _87  and  _90
REMARK   36  A    between atoms: _90  and  _91
REMARK   37  A    between atoms: _96  and  _97
REMARK   38  A    between atoms: _99  and  _101
REMARK   39  A    between atoms: _101  and  _102
REMARK   40  A    between atoms: _101  and  _104
REMARK   41  A    between atoms: _104  and  _105
REMARK   42  A    between atoms: _107  and  _109
REMARK   43  A    between atoms: _109  and  _110
REMARK   44  A    between atoms: _109  and  _112
REMARK   45  A    between atoms: _112  and  _113
REMARK   46  A    between atoms: _115  and  _117
REMARK   47  A    between atoms: _117  and  _118
REMARK   48  A    between atoms: _117  and  _120
REMARK   49  A    between atoms: _123  and  _125
REMARK   50  A    between atoms: _125  and  _126
REMARK   51  A    between atoms: _125  and  _128
REMARK   52  A    between atoms: _128  and  _129
REMARK   53  A    between atoms: _134  and  _136
REMARK   54  A    between atoms: _136  and  _137
REMARK   55  A    between atoms: _136  and  _139
REMARK   56  A    between atoms: _139  and  _140
REMARK   57  A    between atoms: _140  and  _141
REMARK   58  A    between atoms: _144  and  _146
REMARK   59  A    between atoms: _146  and  _147
REMARK   60  A    between atoms: _146  and  _149
REMARK   61  A    between atoms: _149  and  _150
REMARK   62  A    between atoms: _160  and  _162
REMARK   63  A    between atoms: _162  and  _163
REMARK   64  A    between atoms: _162  and  _165
REMARK   65  A    between atoms: _165  and  _166
REMARK   66  A    between atoms: _171  and  _173
REMARK   67  A    between atoms: _173  and  _174
REMARK   68  A    between atoms: _173  and  _176
REMARK   69  A    between atoms: _176  and  _177
REMARK   70  A    between atoms: _180  and  _182
REMARK   71  A    between atoms: _182  and  _183
REMARK   72  A    between atoms: _182  and  _185
REMARK   73  A    between atoms: _185  and  _186
REMARK   74  A    between atoms: _186  and  _187
REMARK   75  A    between atoms: _192  and  _194
REMARK   76  A    between atoms: _194  and  _195
REMARK   77  A    between atoms: _194  and  _197
REMARK   78  A    between atoms: _197  and  _198
REMARK   79  A    between atoms: _198  and  _199
REMARK   80  A    between atoms: _202  and  _204
REMARK   81  A    between atoms: _204  and  _205
REMARK   82  A    between atoms: _204  and  _207
REMARK   83  A    between atoms: _207  and  _208
REMARK   84  A    between atoms: _210  and  _212
REMARK   85  A    between atoms: _212  and  _213
REMARK   86  A    between atoms: _212  and  _215
REMARK   87  A    between atoms: _218  and  _220
REMARK   88  A    between atoms: _220  and  _221
REMARK   89  A    between atoms: _220  and  _223
REMARK   90  A    between atoms: _223  and  _224
REMARK   91  A    between atoms: _230  and  _232
REMARK   92  A    between atoms: _232  and  _233
REMARK   93  A    between atoms: _232  and  _235
REMARK   94  A    between atoms: _235  and  _236
REMARK   95  A    between atoms: _236  and  _237
REMARK   96  A    between atoms: _237  and  _238
REMARK   97  A    between atoms: _247  and  _249
REMARK   98  A    between atoms: _249  and  _250
REMARK   99  A    between atoms: _249  and  _252
REMARK  100  A    between atoms: _252  and  _253
REMARK  101  A    between atoms: _259  and  _261
REMARK  102  A    between atoms: _261  and  _262
REMARK  103  A    between atoms: _261  and  _264
REMARK  104  A    between atoms: _264  and  _265
REMARK  105  A    between atoms: _267  and  _269
REMARK  106  A    between atoms: _269  and  _270
REMARK  107  A    between atoms: _269  and  _272
REMARK  108  A    between atoms: _272  and  _273
REMARK  109  A    between atoms: _278  and  _279
REMARK  110  A    between atoms: _281  and  _283
REMARK  111  A    between atoms: _283  and  _284
REMARK  112  A    between atoms: _283  and  _286
REMARK  113  A    between atoms: _286  and  _287
REMARK  114  A    between atoms: _293  and  _295
REMARK  115  A    between atoms: _295  and  _296
REMARK  116  A    between atoms: _295  and  _298
REMARK  117  A    between atoms: _298  and  _299
REMARK  118  A    between atoms: _302  and  _304
REMARK  119  A    between atoms: _304  and  _305
REMARK  120  A    between atoms: _304  and  _307
REMARK  121  A    between atoms: _310  and  _312
REMARK  122  A    between atoms: _312  and  _313
REMARK  123  A    between atoms: _312  and  _315
REMARK  124  A    between atoms: _315  and  _316
REMARK  125  A    between atoms: _321  and  _322
REMARK  126  A    between atoms: _324  and  _326
REMARK  127  A    between atoms: _326  and  _327
REMARK  128  A    between atoms: _329  and  _331
REMARK  129  A    between atoms: _331  and  _332
REMARK  130  A    between atoms: _335  and  _337
REMARK  131  A    between atoms: _337  and  _338
REMARK  132  A    between atoms: _337  and  _340
REMARK  133  A    between atoms: _343  and  _345
REMARK  134  A    between atoms: _345  and  _346
REMARK  135  A    between atoms: _345  and  _348
REMARK  136  A    between atoms: _351  and  _353
REMARK  137  A    between atoms: _353  and  _354
REMARK  138  A    between atoms: _353  and  _356
REMARK  139  A    between atoms: _356  and  _357
REMARK  140  A    between atoms: _362  and  _364
REMARK  141  A    between atoms: _364  and  _365
REMARK  142  A    between atoms: _364  and  _367
REMARK  143  A    between atoms: _367  and  _368
REMARK  144  A    between atoms: _378  and  _380
REMARK  145  A    between atoms: _380  and  _381
REMARK  146  A    between atoms: _380  and  _383
REMARK  147  A    between atoms: _383  and  _384
REMARK                            x       y       z     vdW  Elec       q    Type
REMARK                         _______ _______ _______ _____ _____    ______ ____
ROOT
ATOM      1  CG  TRP A   1     -12.457 -54.714  31.413  0.00  0.00    -0.002 A 
ATOM      2  CD1 TRP A   1     -11.678 -53.983  32.273  0.00  0.00    +0.068 A 
ATOM      3  NE1 TRP A   1     -12.176 -52.706  32.394  0.00  0.00    -0.352 N 
ATOM      4  HE1 TRP A   1     -11.774 -51.956  32.992  0.00  0.00    +0.166 HD
ATOM      5  CE2 TRP A   1     -13.287 -52.581  31.600  0.00  0.00    +0.056 A 
ATOM      6  CZ2 TRP A   1     -14.119 -51.480  31.387  0.00  0.00    +0.017 A 
ATOM      7  CH2 TRP A   1     -15.172 -51.642  30.519  0.00  0.00    +0.001 A 
ATOM      8  CZ3 TRP A   1     -15.409 -52.869  29.870  0.00  0.00    +0.000 A 
ATOM      9  CE3 TRP A   1     -14.579 -53.965  30.083  0.00  0.00    +0.001 A 
ATOM     10  CD2 TRP A   1     -13.497 -53.828  30.964  0.00  0.00    +0.013 A 
ENDROOT
BRANCH   1  11
ATOM     11  CB  TRP A   1     -12.246 -56.154  31.003  0.00  0.00    +0.053 C 
BRANCH  11  12
ATOM     12  CA  TRP A   1     -13.097 -57.171  31.783  0.00  0.00    +0.137 C 
BRANCH  12  13
ATOM     13  N   TRP A   1     -12.683 -57.187  33.186  0.00  0.00    -0.239 NA
ATOM     14  H   TRP A   1     -11.789 -56.727  33.453  0.00  0.00    +0.142 HD
ENDBRANCH  12  13
BRANCH  12  15
ATOM     15  C   TRP A   1     -12.912 -58.564  31.167  0.00  0.00    +0.224 C 
ATOM     16  O   TRP A   1     -12.070 -59.334  31.638  0.00  0.00    -0.287 OA
ENDBRANCH  12  15
ENDBRANCH  11  12
ENDBRANCH   1  11
TORSDOF 4
REMARK  Name = ../refined-set-2016/4m0e/4m0e_pocket.pdb
REMARK  147 active torsions:
REMARK  status: ('A' for Active; 'I' for Inactive)
REMARK    1  A    between atoms: _1  and  _3
REMARK    2  A    between atoms: _3  and  _4
REMARK    3  A    between atoms: _3  and  _6
REMARK    4  A    between atoms: _6  and  _7
REMARK    5  A    between atoms: _12  and  _13
REMARK    6  A    between atoms: _15  and  _17
REMARK    7  A    between atoms: _17  and  _18
REMARK    8  A    between atoms: _17  and  _20
REMARK    9  A    between atoms: _23  and  _25
REMARK   10  A    between atoms: _25  and  _26
REMARK   11  A    between atoms: _25  and  _28
REMARK   12  A    between atoms: _28  and  _29
REMARK   13  A    between atoms: _32  and  _34
REMARK   14  A    between atoms: _34  and  _35
REMARK   15  A    between atoms: _34  and  _37
REMARK   16  A    between atoms: _37  and  _38
REMARK   17  A    between atoms: _41  and  _43
REMARK   18  A    between atoms: _43  and  _44
REMARK   19  A    between atoms: _43  and  _46
REMARK   20  A    between atoms: _46  and  _47
REMARK   21  A    between atoms: _50  and  _52
REMARK   22  A    between atoms: _52  and  _53
REMARK   23  A    between atoms: _52  and  _55
REMARK   24  A    between atoms: _55  and  _56
REMARK   25  A    between atoms: _59  and  _61
REMARK   26  A    between atoms: _61  and  _62
REMARK   27  A    between atoms: _61  and  _64
REMARK   28  A    between atoms: _64  and  _65
REMARK   29  A    between atoms: _75  and  _77
REMARK   30  A    between atoms: _77  and  _78
REMARK   31  A    between atoms: _80  and  _82
REMARK   32  A    between atoms: _82  and  _83
REMARK   33  A    between atoms: _85  and  _87
REMARK   34  A    between atoms: _87  and  _88
REMARK   35  A    between atoms: _87  and  _90
REMARK   36  A    between atoms: _90  and  _91
REMARK   37  A    between atoms: _96  and  _97
REMARK   38  A    between atoms: _99  and  _101
REMARK   39  A    between atoms: _101  and  _102
REMARK   40  A    between atoms: _101  and  _104
REMARK   41  A    between atoms: _104  and  _105
REMARK   42  A    between atoms: _107  and  _109
REMARK   43  A    between atoms: _109  and  _110
REMARK   44  A    between atoms: _109  and  _112
REMARK   45  A    between atoms: _112  and  _113
REMARK   46  A    between atoms: _115  and  _117
REMARK   47  A    between atoms: _117  and  _118
REMARK   48  A    between atoms: _117  and  _120
REMARK   49  A    between atoms: _123  and  _125
REMARK   50  A    between atoms: _125  and  _126
REMARK   51  A    between atoms: _125  and  _128
REMARK   52  A    between atoms: _128  and  _129
REMARK   53  A    between atoms: _134  and  _136
REMARK   54  A    between atoms: _136  and  _137
REMARK   55  A    between atoms: _136  and  _139
REMARK   56  A    between atoms: _139  and  _140
REMARK   57  A    between atoms: _140  and  _141
REMARK   58  A    between atoms: _144  and  _146
REMARK   59  A    between atoms: _146  and  _147
REMARK   60  A    between atoms: _146  and  _149
REMARK   61  A    between atoms: _149  and  _150
REMARK   62  A    between atoms: _160  and  _162
REMARK   63  A    between atoms: _162  and  _163
REMARK   64  A    between atoms: _162  and  _165
REMARK   65  A    between atoms: _165  and  _166
REMARK   66  A    between atoms: _171  and  _173
REMARK   67  A    between atoms: _173  and  _174
REMARK   68  A    between atoms: _173  and  _176
REMARK   69  A    between atoms: _176  and  _177
REMARK   70  A    between atoms: _180  and  _182
REMARK   71  A    between atoms: _182  and  _183
REMARK   72  A    between atoms: _182  and  _185
REMARK   73  A    between atoms: _185  and  _186
REMARK   74  A    between atoms: _186  and  _187
REMARK   75  A    between atoms: _192  and  _194
REMARK   76  A    between atoms: _194  and  _195
REMARK   77  A    between atoms: _194  and  _197
REMARK   78  A    between atoms: _197  and  _198
REMARK   79  A    between atoms: _198  and  _199
REMARK   80  A    between atoms: _202  and  _204
REMARK   81  A    between atoms: _204  and  _205
REMARK   82  A    between atoms: _204  and  _207
REMARK   83  A    between atoms: _207  and  _208
REMARK   84  A    between atoms: _210  and  _212
REMARK   85  A    between atoms: _212  and  _213
REMARK   86  A    between atoms: _212  and  _215
REMARK   87  A    between atoms: _218  and  _220
REMARK   88  A    between atoms: _220  and  _221
REMARK   89  A    between atoms: _220  and  _223
REMARK   90  A    between atoms: _223  and  _224
REMARK   91  A    between atoms: _230  and  _232
REMARK   92  A    between atoms: _232  and  _233
REMARK   93  A    between atoms: _232  and  _235
REMARK   94  A    between atoms: _235  and  _236
REMARK   95  A    between atoms: _236  and  _237
REMARK   96  A    between atoms: _237  and  _238
REMARK   97  A    between atoms: _247  and  _249
REMARK   98  A    between atoms: _249  and  _250
REMARK   99  A    between atoms: _249  and  _252
REMARK  100  A    between atoms: _252  and  _253
REMARK  101  A    between atoms: _259  and  _261
REMARK  102  A    between atoms: _261  and  _262
REMARK  103  A    between atoms: _261  and  _264
REMARK  104  A    between atoms: _264  and  _265
REMARK  105  A    between atoms: _267  and  _269
REMARK  106  A    between atoms: _269  and  _270
REMARK  107  A    between atoms: _269  and  _272
REMARK  108  A    between atoms: _272  and  _273
REMARK  109  A    between atoms: _278  and  _279
REMARK  110  A    between atoms: _281  and  _283
REMARK  111  A    between atoms: _283  and  _284
REMARK  112  A    between atoms: _283  and  _286
REMARK  113  A    between atoms: _286  and  _287
REMARK  114  A    between atoms: _293  and  _295
REMARK  115  A    between atoms: _295  and  _296
REMARK  116  A    between atoms: _295  and  _298
REMARK  117  A    between atoms: _298  and  _299
REMARK  118  A    between atoms: _302  and  _304
REMARK  119  A    between atoms: _304  and  _305
REMARK  120  A    between atoms: _304  and  _307
REMARK  121  A    between atoms: _310  and  _312
REMARK  122  A    between atoms: _312  and  _313
REMARK  123  A    between atoms: _312  and  _315
REMARK  124  A    between atoms: _315  and  _316
REMARK  125  A    between atoms: _321  and  _322
REMARK  126  A    between atoms: _324  and  _326
REMARK  127  A    between atoms: _326  and  _327
REMARK  128  A    between atoms: _329  and  _331
REMARK  129  A    between atoms: _331  and  _332
REMARK  130  A    between atoms: _335  and  _337
REMARK  131  A    between atoms: _337  and  _338
REMARK  132  A    between atoms: _337  and  _340
REMARK  133  A    between atoms: _343  and  _345
REMARK  134  A    between atoms: _345  and  _346
REMARK  135  A    between atoms: _345  and  _348
REMARK  136  A    between atoms: _351  and  _353
REMARK  137  A    between atoms: _353  and  _354
REMARK  138  A    between atoms: _353  and  _356
REMARK  139  A    between atoms: _356  and  _357
REMARK  140  A    between atoms: _362  and  _364
REMARK  141  A    between atoms: _364  and  _365
REMARK  142  A    between atoms: _364  and  _367
REMARK  143  A    between atoms: _367  and  _368
REMARK  144  A    between atoms: _378  and  _380
REMARK  145  A    between atoms: _380  and  _381
REMARK  146  A    between atoms: _380  and  _383
REMARK  147  A    between atoms: _383  and  _384
REMARK                            x       y       z     vdW  Elec       q    Type
REMARK                         _______ _______ _______ _____ _____    ______ ____
ROOT
ATOM      1  CB  HIS A   1      -6.661 -48.527  27.420  0.00  0.00    +0.072 C 
ENDROOT
BRANCH   1   2
ATOM      2  CG  HIS A   1      -6.154 -47.122  27.387  0.00  0.00    +0.082 A 
ATOM      3  CD2 HIS A   1      -6.669 -45.979  27.900  0.00  0.00    +0.115 A 
ATOM      4  NE2 HIS A   1      -5.845 -44.949  27.501  0.00  0.00    -0.221 NA
ATOM      5  CE1 HIS A   1      -4.859 -45.443  26.775  0.00  0.00    +0.199 A 
ATOM      6  ND1 HIS A   1      -5.015 -46.755  26.698  0.00  0.00    -0.227 NA
ENDBRANCH   1   2
BRANCH   1   7
ATOM      7  CA  HIS A   1      -5.796 -49.497  28.210  0.00  0.00    +0.139 C 
BRANCH   7   8
ATOM      8  N   HIS A   1      -6.252 -50.837  27.887  0.00  0.00    -0.239 NA
ATOM      9  H   HIS A   1      -6.892 -50.940  27.074  0.00  0.00    +0.142 HD
ENDBRANCH   7   8
BRANCH   7  10
ATOM     10  C   HIS A   1      -5.999 -49.219  29.688  0.00  0.00    +0.224 C 
ATOM     11  O   HIS A   1      -7.097 -49.389  30.198  0.00  0.00    -0.287 OA
ENDBRANCH   7  10
ENDBRANCH   1   7
TORSDOF 4
REMARK  Name = ../refined-set-2016/4m0e/4m0e_pocket.pdb
REMARK  147 active torsions:
REMARK  status: ('A' for Active; 'I' for Inactive)
REMARK    1  A    between atoms: _1  and  _3
REMARK    2  A    between atoms: _3  and  _4
REMARK    3  A    between atoms: _3  and  _6
REMARK    4  A    between atoms: _6  and  _7
REMARK    5  A    between atoms: _12  and  _13
REMARK    6  A    between atoms: _15  and  _17
REMARK    7  A    between atoms: _17  and  _18
REMARK    8  A    between atoms: _17  and  _20
REMARK    9  A    between atoms: _23  and  _25
REMARK   10  A    between atoms: _25  and  _26
REMARK   11  A    between atoms: _25  and  _28
REMARK   12  A    between atoms: _28  and  _29
REMARK   13  A    between atoms: _32  and  _34
REMARK   14  A    between atoms: _34  and  _35
REMARK   15  A    between atoms: _34  and  _37
REMARK   16  A    between atoms: _37  and  _38
REMARK   17  A    between atoms: _41  and  _43
REMARK   18  A    between atoms: _43  and  _44
REMARK   19  A    between atoms: _43  and  _46
REMARK   20  A    between atoms: _46  and  _47
REMARK   21  A    between atoms: _50  and  _52
REMARK   22  A    between atoms: _52  and  _53
REMARK   23  A    between atoms: _52  and  _55
REMARK   24  A    between atoms: _55  and  _56
REMARK   25  A    between atoms: _59  and  _61
REMARK   26  A    between atoms: _61  and  _62
REMARK   27  A    between atoms: _61  and  _64
REMARK   28  A    between atoms: _64  and  _65
REMARK   29  A    between atoms: _75  and  _77
REMARK   30  A    between atoms: _77  and  _78
REMARK   31  A    between atoms: _80  and  _82
REMARK   32  A    between atoms: _82  and  _83
REMARK   33  A    between atoms: _85  and  _87
REMARK   34  A    between atoms: _87  and  _88
REMARK   35  A    between atoms: _87  and  _90
REMARK   36  A    between atoms: _90  and  _91
REMARK   37  A    between atoms: _96  and  _97
REMARK   38  A    between atoms: _99  and  _101
REMARK   39  A    between atoms: _101  and  _102
REMARK   40  A    between atoms: _101  and  _104
REMARK   41  A    between atoms: _104  and  _105
REMARK   42  A    between atoms: _107  and  _109
REMARK   43  A    between atoms: _109  and  _110
REMARK   44  A    between atoms: _109  and  _112
REMARK   45  A    between atoms: _112  and  _113
REMARK   46  A    between atoms: _115  and  _117
REMARK   47  A    between atoms: _117  and  _118
REMARK   48  A    between atoms: _117  and  _120
REMARK   49  A    between atoms: _123  and  _125
REMARK   50  A    between atoms: _125  and  _126
REMARK   51  A    between atoms: _125  and  _128
REMARK   52  A    between atoms: _128  and  _129
REMARK   53  A    between atoms: _134  and  _136
REMARK   54  A    between atoms: _136  and  _137
REMARK   55  A    between atoms: _136  and  _139
REMARK   56  A    between atoms: _139  and  _140
REMARK   57  A    between atoms: _140  and  _141
REMARK   58  A    between atoms: _144  and  _146
REMARK   59  A    between atoms: _146  and  _147
REMARK   60  A    between atoms: _146  and  _149
REMARK   61  A    between atoms: _149  and  _150
REMARK   62  A    between atoms: _160  and  _162
REMARK   63  A    between atoms: _162  and  _163
REMARK   64  A    between atoms: _162  and  _165
REMARK   65  A    between atoms: _165  and  _166
REMARK   66  A    between atoms: _171  and  _173
REMARK   67  A    between atoms: _173  and  _174
REMARK   68  A    between atoms: _173  and  _176
REMARK   69  A    between atoms: _176  and  _177
REMARK   70  A    between atoms: _180  and  _182
REMARK   71  A    between atoms: _182  and  _183
REMARK   72  A    between atoms: _182  and  _185
REMARK   73  A    between atoms: _185  and  _186
REMARK   74  A    between atoms: _186  and  _187
REMARK   75  A    between atoms: _192  and  _194
REMARK   76  A    between atoms: _194  and  _195
REMARK   77  A    between atoms: _194  and  _197
REMARK   78  A    between atoms: _197  and  _198
REMARK   79  A    between atoms: _198  and  _199
REMARK   80  A    between atoms: _202  and  _204
REMARK   81  A    between atoms: _204  and  _205
REMARK   82  A    between atoms: _204  and  _207
REMARK   83  A    between atoms: _207  and  _208
REMARK   84  A    between atoms: _210  and  _212
REMARK   85  A    between atoms: _212  and  _213
REMARK   86  A    between atoms: _212  and  _215
REMARK   87  A    between atoms: _218  and  _220
REMARK   88  A    between atoms: _220  and  _221
REMARK   89  A    between atoms: _220  and  _223
REMARK   90  A    between atoms: _223  and  _224
REMARK   91  A    between atoms: _230  and  _232
REMARK   92  A    between atoms: _232  and  _233
REMARK   93  A    between atoms: _232  and  _235
REMARK   94  A    between atoms: _235  and  _236
REMARK   95  A    between atoms: _236  and  _237
REMARK   96  A    between atoms: _237  and  _238
REMARK   97  A    between atoms: _247  and  _249
REMARK   98  A    between atoms: _249  and  _250
REMARK   99  A    between atoms: _249  and  _252
REMARK  100  A    between atoms: _252  and  _253
REMARK  101  A    between atoms: _259  and  _261
REMARK  102  A    between atoms: _261  and  _262
REMARK  103  A    between atoms: _261  and  _264
REMARK  104  A    between atoms: _264  and  _265
REMARK  105  A    between atoms: _267  and  _269
REMARK  106  A    between atoms: _269  and  _270
REMARK  107  A    between atoms: _269  and  _272
REMARK  108  A    between atoms: _272  and  _273
REMARK  109  A    between atoms: _278  and  _279
REMARK  110  A    between atoms: _281  and  _283
REMARK  111  A    between atoms: _283  and  _284
REMARK  112  A    between atoms: _283  and  _286
REMARK  113  A    between atoms: _286  and  _287
REMARK  114  A    between atoms: _293  and  _295
REMARK  115  A    between atoms: _295  and  _296
REMARK  116  A    between atoms: _295  and  _298
REMARK  117  A    between atoms: _298  and  _299
REMARK  118  A    between atoms: _302  and  _304
REMARK  119  A    between atoms: _304  and  _305
REMARK  120  A    between atoms: _304  and  _307
REMARK  121  A    between atoms: _310  and  _312
REMARK  122  A    between atoms: _312  and  _313
REMARK  123  A    between atoms: _312  and  _315
REMARK  124  A    between atoms: _315  and  _316
REMARK  125  A    between atoms: _321  and  _322
REMARK  126  A    between atoms: _324  and  _326
REMARK  127  A    between atoms: _326  and  _327
REMARK  128  A    between atoms: _329  and  _331
REMARK  129  A    between atoms: _331  and  _332
REMARK  130  A    between atoms: _335  and  _337
REMARK  131  A    between atoms: _337  and  _338
REMARK  132  A    between atoms: _337  and  _340
REMARK  133  A    between atoms: _343  and  _345
REMARK  134  A    between atoms: _345  and  _346
REMARK  135  A    between atoms: _345  and  _348
REMARK  136  A    between atoms: _351  and  _353
REMARK  137  A    between atoms: _353  and  _354
REMARK  138  A    between atoms: _353  and  _356
REMARK  139  A    between atoms: _356  and  _357
REMARK  140  A    between atoms: _362  and  _364
REMARK  141  A    between atoms: _364  and  _365
REMARK  142  A    between atoms: _364  and  _367
REMARK  143  A    between atoms: _367  and  _368
REMARK  144  A    between atoms: _378  and  _380
REMARK  145  A    between atoms: _380  and  _381
REMARK  146  A    between atoms: _380  and  _383
REMARK  147  A    between atoms: _383  and  _384
REMARK                            x       y       z     vdW  Elec       q    Type
REMARK                         _______ _______ _______ _____ _____    ______ ____
ROOT
ATOM      1  O   HOH     1     -16.098 -40.296  21.150  0.00  0.00    +0.000 OA
ENDROOT
TORSDOF 0
REMARK  Name = ../refined-set-2016/4m0e/4m0e_pocket.pdb
REMARK  147 active torsions:
REMARK  status: ('A' for Active; 'I' for Inactive)
REMARK    1  A    between atoms: _1  and  _3
REMARK    2  A    between atoms: _3  and  _4
REMARK    3  A    between atoms: _3  and  _6
REMARK    4  A    between atoms: _6  and  _7
REMARK    5  A    between atoms: _12  and  _13
REMARK    6  A    between atoms: _15  and  _17
REMARK    7  A    between atoms: _17  and  _18
REMARK    8  A    between atoms: _17  and  _20
REMARK    9  A    between atoms: _23  and  _25
REMARK   10  A    between atoms: _25  and  _26
REMARK   11  A    between atoms: _25  and  _28
REMARK   12  A    between atoms: _28  and  _29
REMARK   13  A    between atoms: _32  and  _34
REMARK   14  A    between atoms: _34  and  _35
REMARK   15  A    between atoms: _34  and  _37
REMARK   16  A    between atoms: _37  and  _38
REMARK   17  A    between atoms: _41  and  _43
REMARK   18  A    between atoms: _43  and  _44
REMARK   19  A    between atoms: _43  and  _46
REMARK   20  A    between atoms: _46  and  _47
REMARK   21  A    between atoms: _50  and  _52
REMARK   22  A    between atoms: _52  and  _53
REMARK   23  A    between atoms: _52  and  _55
REMARK   24  A    between atoms: _55  and  _56
REMARK   25  A    between atoms: _59  and  _61
REMARK   26  A    between atoms: _61  and  _62
REMARK   27  A    between atoms: _61  and  _64
REMARK   28  A    between atoms: _64  and  _65
REMARK   29  A    between atoms: _75  and  _77
REMARK   30  A    between atoms: _77  and  _78
REMARK   31  A    between atoms: _80  and  _82
REMARK   32  A    between atoms: _82  and  _83
REMARK   33  A    between atoms: _85  and  _87
REMARK   34  A    between atoms: _87  and  _88
REMARK   35  A    between atoms: _87  and  _90
REMARK   36  A    between atoms: _90  and  _91
REMARK   37  A    between atoms: _96  and  _97
REMARK   38  A    between atoms: _99  and  _101
REMARK   39  A    between atoms: _101  and  _102
REMARK   40  A    between atoms: _101  and  _104
REMARK   41  A    between atoms: _104  and  _105
REMARK   42  A    between atoms: _107  and  _109
REMARK   43  A    between atoms: _109  and  _110
REMARK   44  A    between atoms: _109  and  _112
REMARK   45  A    between atoms: _112  and  _113
REMARK   46  A    between atoms: _115  and  _117
REMARK   47  A    between atoms: _117  and  _118
REMARK   48  A    between atoms: _117  and  _120
REMARK   49  A    between atoms: _123  and  _125
REMARK   50  A    between atoms: _125  and  _126
REMARK   51  A    between atoms: _125  and  _128
REMARK   52  A    between atoms: _128  and  _129
REMARK   53  A    between atoms: _134  and  _136
REMARK   54  A    between atoms: _136  and  _137
REMARK   55  A    between atoms: _136  and  _139
REMARK   56  A    between atoms: _139  and  _140
REMARK   57  A    between atoms: _140  and  _141
REMARK   58  A    between atoms: _144  and  _146
REMARK   59  A    between atoms: _146  and  _147
REMARK   60  A    between atoms: _146  and  _149
REMARK   61  A    between atoms: _149  and  _150
REMARK   62  A    between atoms: _160  and  _162
REMARK   63  A    between atoms: _162  and  _163
REMARK   64  A    between atoms: _162  and  _165
REMARK   65  A    between atoms: _165  and  _166
REMARK   66  A    between atoms: _171  and  _173
REMARK   67  A    between atoms: _173  and  _174
REMARK   68  A    between atoms: _173  and  _176
REMARK   69  A    between atoms: _176  and  _177
REMARK   70  A    between atoms: _180  and  _182
REMARK   71  A    between atoms: _182  and  _183
REMARK   72  A    between atoms: _182  and  _185
REMARK   73  A    between atoms: _185  and  _186
REMARK   74  A    between atoms: _186  and  _187
REMARK   75  A    between atoms: _192  and  _194
REMARK   76  A    between atoms: _194  and  _195
REMARK   77  A    between atoms: _194  and  _197
REMARK   78  A    between atoms: _197  and  _198
REMARK   79  A    between atoms: _198  and  _199
REMARK   80  A    between atoms: _202  and  _204
REMARK   81  A    between atoms: _204  and  _205
REMARK   82  A    between atoms: _204  and  _207
REMARK   83  A    between atoms: _207  and  _208
REMARK   84  A    between atoms: _210  and  _212
REMARK   85  A    between atoms: _212  and  _213
REMARK   86  A    between atoms: _212  and  _215
REMARK   87  A    between atoms: _218  and  _220
REMARK   88  A    between atoms: _220  and  _221
REMARK   89  A    between atoms: _220  and  _223
REMARK   90  A    between atoms: _223  and  _224
REMARK   91  A    between atoms: _230  and  _232
REMARK   92  A    between atoms: _232  and  _233
REMARK   93  A    between atoms: _232  and  _235
REMARK   94  A    between atoms: _235  and  _236
REMARK   95  A    between atoms: _236  and  _237
REMARK   96  A    between atoms: _237  and  _238
REMARK   97  A    between atoms: _247  and  _249
REMARK   98  A    between atoms: _249  and  _250
REMARK   99  A    between atoms: _249  and  _252
REMARK  100  A    between atoms: _252  and  _253
REMARK  101  A    between atoms: _259  and  _261
REMARK  102  A    between atoms: _261  and  _262
REMARK  103  A    between atoms: _261  and  _264
REMARK  104  A    between atoms: _264  and  _265
REMARK  105  A    between atoms: _267  and  _269
REMARK  106  A    between atoms: _269  and  _270
REMARK  107  A    between atoms: _269  and  _272
REMARK  108  A    between atoms: _272  and  _273
REMARK  109  A    between atoms: _278  and  _279
REMARK  110  A    between atoms: _281  and  _283
REMARK  111  A    between atoms: _283  and  _284
REMARK  112  A    between atoms: _283  and  _286
REMARK  113  A    between atoms: _286  and  _287
REMARK  114  A    between atoms: _293  and  _295
REMARK  115  A    between atoms: _295  and  _296
REMARK  116  A    between atoms: _295  and  _298
REMARK  117  A    between atoms: _298  and  _299
REMARK  118  A    between atoms: _302  and  _304
REMARK  119  A    between atoms: _304  and  _305
REMARK  120  A    between atoms: _304  and  _307
REMARK  121  A    between atoms: _310  and  _312
REMARK  122  A    between atoms: _312  and  _313
REMARK  123  A    between atoms: _312  and  _315
REMARK  124  A    between atoms: _315  and  _316
REMARK  125  A    between atoms: _321  and  _322
REMARK  126  A    between atoms: _324  and  _326
REMARK  127  A    between atoms: _326  and  _327
REMARK  128  A    between atoms: _329  and  _331
REMARK  129  A    between atoms: _331  and  _332
REMARK  130  A    between atoms: _335  and  _337
REMARK  131  A    between atoms: _337  and  _338
REMARK  132  A    between atoms: _337  and  _340
REMARK  133  A    between atoms: _343  and  _345
REMARK  134  A    between atoms: _345  and  _346
REMARK  135  A    between atoms: _345  and  _348
REMARK  136  A    between atoms: _351  and  _353
REMARK  137  A    between atoms: _353  and  _354
REMARK  138  A    between atoms: _353  and  _356
REMARK  139  A    between atoms: _356  and  _357
REMARK  140  A    between atoms: _362  and  _364
REMARK  141  A    between atoms: _364  and  _365
REMARK  142  A    between atoms: _364  and  _367
REMARK  143  A    between atoms: _367  and  _368
REMARK  144  A    between atoms: _378  and  _380
REMARK  145  A    between atoms: _380  and  _381
REMARK  146  A    between atoms: _380  and  _383
REMARK  147  A    between atoms: _383  and  _384
REMARK                            x       y       z     vdW  Elec       q    Type
REMARK                         _______ _______ _______ _____ _____    ______ ____
ROOT
ATOM      1  O   HOH     1     -16.127 -35.467  25.875  0.00  0.00    +0.000 OA
ENDROOT
TORSDOF 0
REMARK  Name = ../refined-set-2016/4m0e/4m0e_pocket.pdb
REMARK  147 active torsions:
REMARK  status: ('A' for Active; 'I' for Inactive)
REMARK    1  A    between atoms: _1  and  _3
REMARK    2  A    between atoms: _3  and  _4
REMARK    3  A    between atoms: _3  and  _6
REMARK    4  A    between atoms: _6  and  _7
REMARK    5  A    between atoms: _12  and  _13
REMARK    6  A    between atoms: _15  and  _17
REMARK    7  A    between atoms: _17  and  _18
REMARK    8  A    between atoms: _17  and  _20
REMARK    9  A    between atoms: _23  and  _25
REMARK   10  A    between atoms: _25  and  _26
REMARK   11  A    between atoms: _25  and  _28
REMARK   12  A    between atoms: _28  and  _29
REMARK   13  A    between atoms: _32  and  _34
REMARK   14  A    between atoms: _34  and  _35
REMARK   15  A    between atoms: _34  and  _37
REMARK   16  A    between atoms: _37  and  _38
REMARK   17  A    between atoms: _41  and  _43
REMARK   18  A    between atoms: _43  and  _44
REMARK   19  A    between atoms: _43  and  _46
REMARK   20  A    between atoms: _46  and  _47
REMARK   21  A    between atoms: _50  and  _52
REMARK   22  A    between atoms: _52  and  _53
REMARK   23  A    between atoms: _52  and  _55
REMARK   24  A    between atoms: _55  and  _56
REMARK   25  A    between atoms: _59  and  _61
REMARK   26  A    between atoms: _61  and  _62
REMARK   27  A    between atoms: _61  and  _64
REMARK   28  A    between atoms: _64  and  _65
REMARK   29  A    between atoms: _75  and  _77
REMARK   30  A    between atoms: _77  and  _78
REMARK   31  A    between atoms: _80  and  _82
REMARK   32  A    between atoms: _82  and  _83
REMARK   33  A    between atoms: _85  and  _87
REMARK   34  A    between atoms: _87  and  _88
REMARK   35  A    between atoms: _87  and  _90
REMARK   36  A    between atoms: _90  and  _91
REMARK   37  A    between atoms: _96  and  _97
REMARK   38  A    between atoms: _99  and  _101
REMARK   39  A    between atoms: _101  and  _102
REMARK   40  A    between atoms: _101  and  _104
REMARK   41  A    between atoms: _104  and  _105
REMARK   42  A    between atoms: _107  and  _109
REMARK   43  A    between atoms: _109  and  _110
REMARK   44  A    between atoms: _109  and  _112
REMARK   45  A    between atoms: _112  and  _113
REMARK   46  A    between atoms: _115  and  _117
REMARK   47  A    between atoms: _117  and  _118
REMARK   48  A    between atoms: _117  and  _120
REMARK   49  A    between atoms: _123  and  _125
REMARK   50  A    between atoms: _125  and  _126
REMARK   51  A    between atoms: _125  and  _128
REMARK   52  A    between atoms: _128  and  _129
REMARK   53  A    between atoms: _134  and  _136
REMARK   54  A    between atoms: _136  and  _137
REMARK   55  A    between atoms: _136  and  _139
REMARK   56  A    between atoms: _139  and  _140
REMARK   57  A    between atoms: _140  and  _141
REMARK   58  A    between atoms: _144  and  _146
REMARK   59  A    between atoms: _146  and  _147
REMARK   60  A    between atoms: _146  and  _149
REMARK   61  A    between atoms: _149  and  _150
REMARK   62  A    between atoms: _160  and  _162
REMARK   63  A    between atoms: _162  and  _163
REMARK   64  A    between atoms: _162  and  _165
REMARK   65  A    between atoms: _165  and  _166
REMARK   66  A    between atoms: _171  and  _173
REMARK   67  A    between atoms: _173  and  _174
REMARK   68  A    between atoms: _173  and  _176
REMARK   69  A    between atoms: _176  and  _177
REMARK   70  A    between atoms: _180  and  _182
REMARK   71  A    between atoms: _182  and  _183
REMARK   72  A    between atoms: _182  and  _185
REMARK   73  A    between atoms: _185  and  _186
REMARK   74  A    between atoms: _186  and  _187
REMARK   75  A    between atoms: _192  and  _194
REMARK   76  A    between atoms: _194  and  _195
REMARK   77  A    between atoms: _194  and  _197
REMARK   78  A    between atoms: _197  and  _198
REMARK   79  A    between atoms: _198  and  _199
REMARK   80  A    between atoms: _202  and  _204
REMARK   81  A    between atoms: _204  and  _205
REMARK   82  A    between atoms: _204  and  _207
REMARK   83  A    between atoms: _207  and  _208
REMARK   84  A    between atoms: _210  and  _212
REMARK   85  A    between atoms: _212  and  _213
REMARK   86  A    between atoms: _212  and  _215
REMARK   87  A    between atoms: _218  and  _220
REMARK   88  A    between atoms: _220  and  _221
REMARK   89  A    between atoms: _220  and  _223
REMARK   90  A    between atoms: _223  and  _224
REMARK   91  A    between atoms: _230  and  _232
REMARK   92  A    between atoms: _232  and  _233
REMARK   93  A    between atoms: _232  and  _235
REMARK   94  A    between atoms: _235  and  _236
REMARK   95  A    between atoms: _236  and  _237
REMARK   96  A    between atoms: _237  and  _238
REMARK   97  A    between atoms: _247  and  _249
REMARK   98  A    between atoms: _249  and  _250
REMARK   99  A    between atoms: _249  and  _252
REMARK  100  A    between atoms: _252  and  _253
REMARK  101  A    between atoms: _259  and  _261
REMARK  102  A    between atoms: _261  and  _262
REMARK  103  A    between atoms: _261  and  _264
REMARK  104  A    between atoms: _264  and  _265
REMARK  105  A    between atoms: _267  and  _269
REMARK  106  A    between atoms: _269  and  _270
REMARK  107  A    between atoms: _269  and  _272
REMARK  108  A    between atoms: _272  and  _273
REMARK  109  A    between atoms: _278  and  _279
REMARK  110  A    between atoms: _281  and  _283
REMARK  111  A    between atoms: _283  and  _284
REMARK  112  A    between atoms: _283  and  _286
REMARK  113  A    between atoms: _286  and  _287
REMARK  114  A    between atoms: _293  and  _295
REMARK  115  A    between atoms: _295  and  _296
REMARK  116  A    between atoms: _295  and  _298
REMARK  117  A    between atoms: _298  and  _299
REMARK  118  A    between atoms: _302  and  _304
REMARK  119  A    between atoms: _304  and  _305
REMARK  120  A    between atoms: _304  and  _307
REMARK  121  A    between atoms: _310  and  _312
REMARK  122  A    between atoms: _312  and  _313
REMARK  123  A    between atoms: _312  and  _315
REMARK  124  A    between atoms: _315  and  _316
REMARK  125  A    between atoms: _321  and  _322
REMARK  126  A    between atoms: _324  and  _326
REMARK  127  A    between atoms: _326  and  _327
REMARK  128  A    between atoms: _329  and  _331
REMARK  129  A    between atoms: _331  and  _332
REMARK  130  A    between atoms: _335  and  _337
REMARK  131  A    between atoms: _337  and  _338
REMARK  132  A    between atoms: _337  and  _340
REMARK  133  A    between atoms: _343  and  _345
REMARK  134  A    between atoms: _345  and  _346
REMARK  135  A    between atoms: _345  and  _348
REMARK  136  A    between atoms: _351  and  _353
REMARK  137  A    between atoms: _353  and  _354
REMARK  138  A    between atoms: _353  and  _356
REMARK  139  A    between atoms: _356  and  _357
REMARK  140  A    between atoms: _362  and  _364
REMARK  141  A    between atoms: _364  and  _365
REMARK  142  A    between atoms: _364  and  _367
REMARK  143  A    between atoms: _367  and  _368
REMARK  144  A    between atoms: _378  and  _380
REMARK  145  A    between atoms: _380  and  _381
REMARK  146  A    between atoms: _380  and  _383
REMARK  147  A    between atoms: _383  and  _384
REMARK                            x       y       z     vdW  Elec       q    Type
REMARK                         _______ _______ _______ _____ _____    ______ ____
ROOT
ATOM      1  O   HOH     1     -15.431 -40.117  35.471  0.00  0.00    +0.000 OA
ENDROOT
TORSDOF 0
REMARK  Name = ../refined-set-2016/4m0e/4m0e_pocket.pdb
REMARK  147 active torsions:
REMARK  status: ('A' for Active; 'I' for Inactive)
REMARK    1  A    between atoms: _1  and  _3
REMARK    2  A    between atoms: _3  and  _4
REMARK    3  A    between atoms: _3  and  _6
REMARK    4  A    between atoms: _6  and  _7
REMARK    5  A    between atoms: _12  and  _13
REMARK    6  A    between atoms: _15  and  _17
REMARK    7  A    between atoms: _17  and  _18
REMARK    8  A    between atoms: _17  and  _20
REMARK    9  A    between atoms: _23  and  _25
REMARK   10  A    between atoms: _25  and  _26
REMARK   11  A    between atoms: _25  and  _28
REMARK   12  A    between atoms: _28  and  _29
REMARK   13  A    between atoms: _32  and  _34
REMARK   14  A    between atoms: _34  and  _35
REMARK   15  A    between atoms: _34  and  _37
REMARK   16  A    between atoms: _37  and  _38
REMARK   17  A    between atoms: _41  and  _43
REMARK   18  A    between atoms: _43  and  _44
REMARK   19  A    between atoms: _43  and  _46
REMARK   20  A    between atoms: _46  and  _47
REMARK   21  A    between atoms: _50  and  _52
REMARK   22  A    between atoms: _52  and  _53
REMARK   23  A    between atoms: _52  and  _55
REMARK   24  A    between atoms: _55  and  _56
REMARK   25  A    between atoms: _59  and  _61
REMARK   26  A    between atoms: _61  and  _62
REMARK   27  A    between atoms: _61  and  _64
REMARK   28  A    between atoms: _64  and  _65
REMARK   29  A    between atoms: _75  and  _77
REMARK   30  A    between atoms: _77  and  _78
REMARK   31  A    between atoms: _80  and  _82
REMARK   32  A    between atoms: _82  and  _83
REMARK   33  A    between atoms: _85  and  _87
REMARK   34  A    between atoms: _87  and  _88
REMARK   35  A    between atoms: _87  and  _90
REMARK   36  A    between atoms: _90  and  _91
REMARK   37  A    between atoms: _96  and  _97
REMARK   38  A    between atoms: _99  and  _101
REMARK   39  A    between atoms: _101  and  _102
REMARK   40  A    between atoms: _101  and  _104
REMARK   41  A    between atoms: _104  and  _105
REMARK   42  A    between atoms: _107  and  _109
REMARK   43  A    between atoms: _109  and  _110
REMARK   44  A    between atoms: _109  and  _112
REMARK   45  A    between atoms: _112  and  _113
REMARK   46  A    between atoms: _115  and  _117
REMARK   47  A    between atoms: _117  and  _118
REMARK   48  A    between atoms: _117  and  _120
REMARK   49  A    between atoms: _123  and  _125
REMARK   50  A    between atoms: _125  and  _126
REMARK   51  A    between atoms: _125  and  _128
REMARK   52  A    between atoms: _128  and  _129
REMARK   53  A    between atoms: _134  and  _136
REMARK   54  A    between atoms: _136  and  _137
REMARK   55  A    between atoms: _136  and  _139
REMARK   56  A    between atoms: _139  and  _140
REMARK   57  A    between atoms: _140  and  _141
REMARK   58  A    between atoms: _144  and  _146
REMARK   59  A    between atoms: _146  and  _147
REMARK   60  A    between atoms: _146  and  _149
REMARK   61  A    between atoms: _149  and  _150
REMARK   62  A    between atoms: _160  and  _162
REMARK   63  A    between atoms: _162  and  _163
REMARK   64  A    between atoms: _162  and  _165
REMARK   65  A    between atoms: _165  and  _166
REMARK   66  A    between atoms: _171  and  _173
REMARK   67  A    between atoms: _173  and  _174
REMARK   68  A    between atoms: _173  and  _176
REMARK   69  A    between atoms: _176  and  _177
REMARK   70  A    between atoms: _180  and  _182
REMARK   71  A    between atoms: _182  and  _183
REMARK   72  A    between atoms: _182  and  _185
REMARK   73  A    between atoms: _185  and  _186
REMARK   74  A    between atoms: _186  and  _187
REMARK   75  A    between atoms: _192  and  _194
REMARK   76  A    between atoms: _194  and  _195
REMARK   77  A    between atoms: _194  and  _197
REMARK   78  A    between atoms: _197  and  _198
REMARK   79  A    between atoms: _198  and  _199
REMARK   80  A    between atoms: _202  and  _204
REMARK   81  A    between atoms: _204  and  _205
REMARK   82  A    between atoms: _204  and  _207
REMARK   83  A    between atoms: _207  and  _208
REMARK   84  A    between atoms: _210  and  _212
REMARK   85  A    between atoms: _212  and  _213
REMARK   86  A    between atoms: _212  and  _215
REMARK   87  A    between atoms: _218  and  _220
REMARK   88  A    between atoms: _220  and  _221
REMARK   89  A    between atoms: _220  and  _223
REMARK   90  A    between atoms: _223  and  _224
REMARK   91  A    between atoms: _230  and  _232
REMARK   92  A    between atoms: _232  and  _233
REMARK   93  A    between atoms: _232  and  _235
REMARK   94  A    between atoms: _235  and  _236
REMARK   95  A    between atoms: _236  and  _237
REMARK   96  A    between atoms: _237  and  _238
REMARK   97  A    between atoms: _247  and  _249
REMARK   98  A    between atoms: _249  and  _250
REMARK   99  A    between atoms: _249  and  _252
REMARK  100  A    between atoms: _252  and  _253
REMARK  101  A    between atoms: _259  and  _261
REMARK  102  A    between atoms: _261  and  _262
REMARK  103  A    between atoms: _261  and  _264
REMARK  104  A    between atoms: _264  and  _265
REMARK  105  A    between atoms: _267  and  _269
REMARK  106  A    between atoms: _269  and  _270
REMARK  107  A    between atoms: _269  and  _272
REMARK  108  A    between atoms: _272  and  _273
REMARK  109  A    between atoms: _278  and  _279
REMARK  110  A    between atoms: _281  and  _283
REMARK  111  A    between atoms: _283  and  _284
REMARK  112  A    between atoms: _283  and  _286
REMARK  113  A    between atoms: _286  and  _287
REMARK  114  A    between atoms: _293  and  _295
REMARK  115  A    between atoms: _295  and  _296
REMARK  116  A    between atoms: _295  and  _298
REMARK  117  A    between atoms: _298  and  _299
REMARK  118  A    between atoms: _302  and  _304
REMARK  119  A    between atoms: _304  and  _305
REMARK  120  A    between atoms: _304  and  _307
REMARK  121  A    between atoms: _310  and  _312
REMARK  122  A    between atoms: _312  and  _313
REMARK  123  A    between atoms: _312  and  _315
REMARK  124  A    between atoms: _315  and  _316
REMARK  125  A    between atoms: _321  and  _322
REMARK  126  A    between atoms: _324  and  _326
REMARK  127  A    between atoms: _326  and  _327
REMARK  128  A    between atoms: _329  and  _331
REMARK  129  A    between atoms: _331  and  _332
REMARK  130  A    between atoms: _335  and  _337
REMARK  131  A    between atoms: _337  and  _338
REMARK  132  A    between atoms: _337  and  _340
REMARK  133  A    between atoms: _343  and  _345
REMARK  134  A    between atoms: _345  and  _346
REMARK  135  A    between atoms: _345  and  _348
REMARK  136  A    between atoms: _351  and  _353
REMARK  137  A    between atoms: _353  and  _354
REMARK  138  A    between atoms: _353  and  _356
REMARK  139  A    between atoms: _356  and  _357
REMARK  140  A    between atoms: _362  and  _364
REMARK  141  A    between atoms: _364  and  _365
REMARK  142  A    between atoms: _364  and  _367
REMARK  143  A    between atoms: _367  and  _368
REMARK  144  A    between atoms: _378  and  _380
REMARK  145  A    between atoms: _380  and  _381
REMARK  146  A    between atoms: _380  and  _383
REMARK  147  A    between atoms: _383  and  _384
REMARK                            x       y       z     vdW  Elec       q    Type
REMARK                         _______ _______ _______ _____ _____    ______ ____
ROOT
ATOM      1  O   HOH     1     -19.782 -43.677  20.566  0.00  0.00    +0.000 OA
ENDROOT
TORSDOF 0
REMARK  Name = ../refined-set-2016/4m0e/4m0e_pocket.pdb
REMARK  147 active torsions:
REMARK  status: ('A' for Active; 'I' for Inactive)
REMARK    1  A    between atoms: _1  and  _3
REMARK    2  A    between atoms: _3  and  _4
REMARK    3  A    between atoms: _3  and  _6
REMARK    4  A    between atoms: _6  and  _7
REMARK    5  A    between atoms: _12  and  _13
REMARK    6  A    between atoms: _15  and  _17
REMARK    7  A    between atoms: _17  and  _18
REMARK    8  A    between atoms: _17  and  _20
REMARK    9  A    between atoms: _23  and  _25
REMARK   10  A    between atoms: _25  and  _26
REMARK   11  A    between atoms: _25  and  _28
REMARK   12  A    between atoms: _28  and  _29
REMARK   13  A    between atoms: _32  and  _34
REMARK   14  A    between atoms: _34  and  _35
REMARK   15  A    between atoms: _34  and  _37
REMARK   16  A    between atoms: _37  and  _38
REMARK   17  A    between atoms: _41  and  _43
REMARK   18  A    between atoms: _43  and  _44
REMARK   19  A    between atoms: _43  and  _46
REMARK   20  A    between atoms: _46  and  _47
REMARK   21  A    between atoms: _50  and  _52
REMARK   22  A    between atoms: _52  and  _53
REMARK   23  A    between atoms: _52  and  _55
REMARK   24  A    between atoms: _55  and  _56
REMARK   25  A    between atoms: _59  and  _61
REMARK   26  A    between atoms: _61  and  _62
REMARK   27  A    between atoms: _61  and  _64
REMARK   28  A    between atoms: _64  and  _65
REMARK   29  A    between atoms: _75  and  _77
REMARK   30  A    between atoms: _77  and  _78
REMARK   31  A    between atoms: _80  and  _82
REMARK   32  A    between atoms: _82  and  _83
REMARK   33  A    between atoms: _85  and  _87
REMARK   34  A    between atoms: _87  and  _88
REMARK   35  A    between atoms: _87  and  _90
REMARK   36  A    between atoms: _90  and  _91
REMARK   37  A    between atoms: _96  and  _97
REMARK   38  A    between atoms: _99  and  _101
REMARK   39  A    between atoms: _101  and  _102
REMARK   40  A    between atoms: _101  and  _104
REMARK   41  A    between atoms: _104  and  _105
REMARK   42  A    between atoms: _107  and  _109
REMARK   43  A    between atoms: _109  and  _110
REMARK   44  A    between atoms: _109  and  _112
REMARK   45  A    between atoms: _112  and  _113
REMARK   46  A    between atoms: _115  and  _117
REMARK   47  A    between atoms: _117  and  _118
REMARK   48  A    between atoms: _117  and  _120
REMARK   49  A    between atoms: _123  and  _125
REMARK   50  A    between atoms: _125  and  _126
REMARK   51  A    between atoms: _125  and  _128
REMARK   52  A    between atoms: _128  and  _129
REMARK   53  A    between atoms: _134  and  _136
REMARK   54  A    between atoms: _136  and  _137
REMARK   55  A    between atoms: _136  and  _139
REMARK   56  A    between atoms: _139  and  _140
REMARK   57  A    between atoms: _140  and  _141
REMARK   58  A    between atoms: _144  and  _146
REMARK   59  A    between atoms: _146  and  _147
REMARK   60  A    between atoms: _146  and  _149
REMARK   61  A    between atoms: _149  and  _150
REMARK   62  A    between atoms: _160  and  _162
REMARK   63  A    between atoms: _162  and  _163
REMARK   64  A    between atoms: _162  and  _165
REMARK   65  A    between atoms: _165  and  _166
REMARK   66  A    between atoms: _171  and  _173
REMARK   67  A    between atoms: _173  and  _174
REMARK   68  A    between atoms: _173  and  _176
REMARK   69  A    between atoms: _176  and  _177
REMARK   70  A    between atoms: _180  and  _182
REMARK   71  A    between atoms: _182  and  _183
REMARK   72  A    between atoms: _182  and  _185
REMARK   73  A    between atoms: _185  and  _186
REMARK   74  A    between atoms: _186  and  _187
REMARK   75  A    between atoms: _192  and  _194
REMARK   76  A    between atoms: _194  and  _195
REMARK   77  A    between atoms: _194  and  _197
REMARK   78  A    between atoms: _197  and  _198
REMARK   79  A    between atoms: _198  and  _199
REMARK   80  A    between atoms: _202  and  _204
REMARK   81  A    between atoms: _204  and  _205
REMARK   82  A    between atoms: _204  and  _207
REMARK   83  A    between atoms: _207  and  _208
REMARK   84  A    between atoms: _210  and  _212
REMARK   85  A    between atoms: _212  and  _213
REMARK   86  A    between atoms: _212  and  _215
REMARK   87  A    between atoms: _218  and  _220
REMARK   88  A    between atoms: _220  and  _221
REMARK   89  A    between atoms: _220  and  _223
REMARK   90  A    between atoms: _223  and  _224
REMARK   91  A    between atoms: _230  and  _232
REMARK   92  A    between atoms: _232  and  _233
REMARK   93  A    between atoms: _232  and  _235
REMARK   94  A    between atoms: _235  and  _236
REMARK   95  A    between atoms: _236  and  _237
REMARK   96  A    between atoms: _237  and  _238
REMARK   97  A    between atoms: _247  and  _249
REMARK   98  A    between atoms: _249  and  _250
REMARK   99  A    between atoms: _249  and  _252
REMARK  100  A    between atoms: _252  and  _253
REMARK  101  A    between atoms: _259  and  _261
REMARK  102  A    between atoms: _261  and  _262
REMARK  103  A    between atoms: _261  and  _264
REMARK  104  A    between atoms: _264  and  _265
REMARK  105  A    between atoms: _267  and  _269
REMARK  106  A    between atoms: _269  and  _270
REMARK  107  A    between atoms: _269  and  _272
REMARK  108  A    between atoms: _272  and  _273
REMARK  109  A    between atoms: _278  and  _279
REMARK  110  A    between atoms: _281  and  _283
REMARK  111  A    between atoms: _283  and  _284
REMARK  112  A    between atoms: _283  and  _286
REMARK  113  A    between atoms: _286  and  _287
REMARK  114  A    between atoms: _293  and  _295
REMARK  115  A    between atoms: _295  and  _296
REMARK  116  A    between atoms: _295  and  _298
REMARK  117  A    between atoms: _298  and  _299
REMARK  118  A    between atoms: _302  and  _304
REMARK  119  A    between atoms: _304  and  _305
REMARK  120  A    between atoms: _304  and  _307
REMARK  121  A    between atoms: _310  and  _312
REMARK  122  A    between atoms: _312  and  _313
REMARK  123  A    between atoms: _312  and  _315
REMARK  124  A    between atoms: _315  and  _316
REMARK  125  A    between atoms: _321  and  _322
REMARK  126  A    between atoms: _324  and  _326
REMARK  127  A    between atoms: _326  and  _327
REMARK  128  A    between atoms: _329  and  _331
REMARK  129  A    between atoms: _331  and  _332
REMARK  130  A    between atoms: _335  and  _337
REMARK  131  A    between atoms: _337  and  _338
REMARK  132  A    between atoms: _337  and  _340
REMARK  133  A    between atoms: _343  and  _345
REMARK  134  A    between atoms: _345  and  _346
REMARK  135  A    between atoms: _345  and  _348
REMARK  136  A    between atoms: _351  and  _353
REMARK  137  A    between atoms: _353  and  _354
REMARK  138  A    between atoms: _353  and  _356
REMARK  139  A    between atoms: _356  and  _357
REMARK  140  A    between atoms: _362  and  _364
REMARK  141  A    between atoms: _364  and  _365
REMARK  142  A    between atoms: _364  and  _367
REMARK  143  A    between atoms: _367  and  _368
REMARK  144  A    between atoms: _378  and  _380
REMARK  145  A    between atoms: _380  and  _381
REMARK  146  A    between atoms: _380  and  _383
REMARK  147  A    between atoms: _383  and  _384
REMARK                            x       y       z     vdW  Elec       q    Type
REMARK                         _______ _______ _______ _____ _____    ______ ____
ROOT
ATOM      1  O   HOH     1     -12.029 -42.022  33.170  0.00  0.00    +0.000 OA
ENDROOT
TORSDOF 0
REMARK  Name = ../refined-set-2016/4m0e/4m0e_pocket.pdb
REMARK  147 active torsions:
REMARK  status: ('A' for Active; 'I' for Inactive)
REMARK    1  A    between atoms: _1  and  _3
REMARK    2  A    between atoms: _3  and  _4
REMARK    3  A    between atoms: _3  and  _6
REMARK    4  A    between atoms: _6  and  _7
REMARK    5  A    between atoms: _12  and  _13
REMARK    6  A    between atoms: _15  and  _17
REMARK    7  A    between atoms: _17  and  _18
REMARK    8  A    between atoms: _17  and  _20
REMARK    9  A    between atoms: _23  and  _25
REMARK   10  A    between atoms: _25  and  _26
REMARK   11  A    between atoms: _25  and  _28
REMARK   12  A    between atoms: _28  and  _29
REMARK   13  A    between atoms: _32  and  _34
REMARK   14  A    between atoms: _34  and  _35
REMARK   15  A    between atoms: _34  and  _37
REMARK   16  A    between atoms: _37  and  _38
REMARK   17  A    between atoms: _41  and  _43
REMARK   18  A    between atoms: _43  and  _44
REMARK   19  A    between atoms: _43  and  _46
REMARK   20  A    between atoms: _46  and  _47
REMARK   21  A    between atoms: _50  and  _52
REMARK   22  A    between atoms: _52  and  _53
REMARK   23  A    between atoms: _52  and  _55
REMARK   24  A    between atoms: _55  and  _56
REMARK   25  A    between atoms: _59  and  _61
REMARK   26  A    between atoms: _61  and  _62
REMARK   27  A    between atoms: _61  and  _64
REMARK   28  A    between atoms: _64  and  _65
REMARK   29  A    between atoms: _75  and  _77
REMARK   30  A    between atoms: _77  and  _78
REMARK   31  A    between atoms: _80  and  _82
REMARK   32  A    between atoms: _82  and  _83
REMARK   33  A    between atoms: _85  and  _87
REMARK   34  A    between atoms: _87  and  _88
REMARK   35  A    between atoms: _87  and  _90
REMARK   36  A    between atoms: _90  and  _91
REMARK   37  A    between atoms: _96  and  _97
REMARK   38  A    between atoms: _99  and  _101
REMARK   39  A    between atoms: _101  and  _102
REMARK   40  A    between atoms: _101  and  _104
REMARK   41  A    between atoms: _104  and  _105
REMARK   42  A    between atoms: _107  and  _109
REMARK   43  A    between atoms: _109  and  _110
REMARK   44  A    between atoms: _109  and  _112
REMARK   45  A    between atoms: _112  and  _113
REMARK   46  A    between atoms: _115  and  _117
REMARK   47  A    between atoms: _117  and  _118
REMARK   48  A    between atoms: _117  and  _120
REMARK   49  A    between atoms: _123  and  _125
REMARK   50  A    between atoms: _125  and  _126
REMARK   51  A    between atoms: _125  and  _128
REMARK   52  A    between atoms: _128  and  _129
REMARK   53  A    between atoms: _134  and  _136
REMARK   54  A    between atoms: _136  and  _137
REMARK   55  A    between atoms: _136  and  _139
REMARK   56  A    between atoms: _139  and  _140
REMARK   57  A    between atoms: _140  and  _141
REMARK   58  A    between atoms: _144  and  _146
REMARK   59  A    between atoms: _146  and  _147
REMARK   60  A    between atoms: _146  and  _149
REMARK   61  A    between atoms: _149  and  _150
REMARK   62  A    between atoms: _160  and  _162
REMARK   63  A    between atoms: _162  and  _163
REMARK   64  A    between atoms: _162  and  _165
REMARK   65  A    between atoms: _165  and  _166
REMARK   66  A    between atoms: _171  and  _173
REMARK   67  A    between atoms: _173  and  _174
REMARK   68  A    between atoms: _173  and  _176
REMARK   69  A    between atoms: _176  and  _177
REMARK   70  A    between atoms: _180  and  _182
REMARK   71  A    between atoms: _182  and  _183
REMARK   72  A    between atoms: _182  and  _185
REMARK   73  A    between atoms: _185  and  _186
REMARK   74  A    between atoms: _186  and  _187
REMARK   75  A    between atoms: _192  and  _194
REMARK   76  A    between atoms: _194  and  _195
REMARK   77  A    between atoms: _194  and  _197
REMARK   78  A    between atoms: _197  and  _198
REMARK   79  A    between atoms: _198  and  _199
REMARK   80  A    between atoms: _202  and  _204
REMARK   81  A    between atoms: _204  and  _205
REMARK   82  A    between atoms: _204  and  _207
REMARK   83  A    between atoms: _207  and  _208
REMARK   84  A    between atoms: _210  and  _212
REMARK   85  A    between atoms: _212  and  _213
REMARK   86  A    between atoms: _212  and  _215
REMARK   87  A    between atoms: _218  and  _220
REMARK   88  A    between atoms: _220  and  _221
REMARK   89  A    between atoms: _220  and  _223
REMARK   90  A    between atoms: _223  and  _224
REMARK   91  A    between atoms: _230  and  _232
REMARK   92  A    between atoms: _232  and  _233
REMARK   93  A    between atoms: _232  and  _235
REMARK   94  A    between atoms: _235  and  _236
REMARK   95  A    between atoms: _236  and  _237
REMARK   96  A    between atoms: _237  and  _238
REMARK   97  A    between atoms: _247  and  _249
REMARK   98  A    between atoms: _249  and  _250
REMARK   99  A    between atoms: _249  and  _252
REMARK  100  A    between atoms: _252  and  _253
REMARK  101  A    between atoms: _259  and  _261
REMARK  102  A    between atoms: _261  and  _262
REMARK  103  A    between atoms: _261  and  _264
REMARK  104  A    between atoms: _264  and  _265
REMARK  105  A    between atoms: _267  and  _269
REMARK  106  A    between atoms: _269  and  _270
REMARK  107  A    between atoms: _269  and  _272
REMARK  108  A    between atoms: _272  and  _273
REMARK  109  A    between atoms: _278  and  _279
REMARK  110  A    between atoms: _281  and  _283
REMARK  111  A    between atoms: _283  and  _284
REMARK  112  A    between atoms: _283  and  _286
REMARK  113  A    between atoms: _286  and  _287
REMARK  114  A    between atoms: _293  and  _295
REMARK  115  A    between atoms: _295  and  _296
REMARK  116  A    between atoms: _295  and  _298
REMARK  117  A    between atoms: _298  and  _299
REMARK  118  A    between atoms: _302  and  _304
REMARK  119  A    between atoms: _304  and  _305
REMARK  120  A    between atoms: _304  and  _307
REMARK  121  A    between atoms: _310  and  _312
REMARK  122  A    between atoms: _312  and  _313
REMARK  123  A    between atoms: _312  and  _315
REMARK  124  A    between atoms: _315  and  _316
REMARK  125  A    between atoms: _321  and  _322
REMARK  126  A    between atoms: _324  and  _326
REMARK  127  A    between atoms: _326  and  _327
REMARK  128  A    between atoms: _329  and  _331
REMARK  129  A    between atoms: _331  and  _332
REMARK  130  A    between atoms: _335  and  _337
REMARK  131  A    between atoms: _337  and  _338
REMARK  132  A    between atoms: _337  and  _340
REMARK  133  A    between atoms: _343  and  _345
REMARK  134  A    between atoms: _345  and  _346
REMARK  135  A    between atoms: _345  and  _348
REMARK  136  A    between atoms: _351  and  _353
REMARK  137  A    between atoms: _353  and  _354
REMARK  138  A    between atoms: _353  and  _356
REMARK  139  A    between atoms: _356  and  _357
REMARK  140  A    between atoms: _362  and  _364
REMARK  141  A    between atoms: _364  and  _365
REMARK  142  A    between atoms: _364  and  _367
REMARK  143  A    between atoms: _367  and  _368
REMARK  144  A    between atoms: _378  and  _380
REMARK  145  A    between atoms: _380  and  _381
REMARK  146  A    between atoms: _380  and  _383
REMARK  147  A    between atoms: _383  and  _384
REMARK                            x       y       z     vdW  Elec       q    Type
REMARK                         _______ _______ _______ _____ _____    ______ ____
ROOT
ATOM      1  O   HOH     1     -14.688 -42.503  33.982  0.00  0.00    +0.000 OA
ENDROOT
TORSDOF 0
REMARK  Name = ../refined-set-2016/4m0e/4m0e_pocket.pdb
REMARK  147 active torsions:
REMARK  status: ('A' for Active; 'I' for Inactive)
REMARK    1  A    between atoms: _1  and  _3
REMARK    2  A    between atoms: _3  and  _4
REMARK    3  A    between atoms: _3  and  _6
REMARK    4  A    between atoms: _6  and  _7
REMARK    5  A    between atoms: _12  and  _13
REMARK    6  A    between atoms: _15  and  _17
REMARK    7  A    between atoms: _17  and  _18
REMARK    8  A    between atoms: _17  and  _20
REMARK    9  A    between atoms: _23  and  _25
REMARK   10  A    between atoms: _25  and  _26
REMARK   11  A    between atoms: _25  and  _28
REMARK   12  A    between atoms: _28  and  _29
REMARK   13  A    between atoms: _32  and  _34
REMARK   14  A    between atoms: _34  and  _35
REMARK   15  A    between atoms: _34  and  _37
REMARK   16  A    between atoms: _37  and  _38
REMARK   17  A    between atoms: _41  and  _43
REMARK   18  A    between atoms: _43  and  _44
REMARK   19  A    between atoms: _43  and  _46
REMARK   20  A    between atoms: _46  and  _47
REMARK   21  A    between atoms: _50  and  _52
REMARK   22  A    between atoms: _52  and  _53
REMARK   23  A    between atoms: _52  and  _55
REMARK   24  A    between atoms: _55  and  _56
REMARK   25  A    between atoms: _59  and  _61
REMARK   26  A    between atoms: _61  and  _62
REMARK   27  A    between atoms: _61  and  _64
REMARK   28  A    between atoms: _64  and  _65
REMARK   29  A    between atoms: _75  and  _77
REMARK   30  A    between atoms: _77  and  _78
REMARK   31  A    between atoms: _80  and  _82
REMARK   32  A    between atoms: _82  and  _83
REMARK   33  A    between atoms: _85  and  _87
REMARK   34  A    between atoms: _87  and  _88
REMARK   35  A    between atoms: _87  and  _90
REMARK   36  A    between atoms: _90  and  _91
REMARK   37  A    between atoms: _96  and  _97
REMARK   38  A    between atoms: _99  and  _101
REMARK   39  A    between atoms: _101  and  _102
REMARK   40  A    between atoms: _101  and  _104
REMARK   41  A    between atoms: _104  and  _105
REMARK   42  A    between atoms: _107  and  _109
REMARK   43  A    between atoms: _109  and  _110
REMARK   44  A    between atoms: _109  and  _112
REMARK   45  A    between atoms: _112  and  _113
REMARK   46  A    between atoms: _115  and  _117
REMARK   47  A    between atoms: _117  and  _118
REMARK   48  A    between atoms: _117  and  _120
REMARK   49  A    between atoms: _123  and  _125
REMARK   50  A    between atoms: _125  and  _126
REMARK   51  A    between atoms: _125  and  _128
REMARK   52  A    between atoms: _128  and  _129
REMARK   53  A    between atoms: _134  and  _136
REMARK   54  A    between atoms: _136  and  _137
REMARK   55  A    between atoms: _136  and  _139
REMARK   56  A    between atoms: _139  and  _140
REMARK   57  A    between atoms: _140  and  _141
REMARK   58  A    between atoms: _144  and  _146
REMARK   59  A    between atoms: _146  and  _147
REMARK   60  A    between atoms: _146  and  _149
REMARK   61  A    between atoms: _149  and  _150
REMARK   62  A    between atoms: _160  and  _162
REMARK   63  A    between atoms: _162  and  _163
REMARK   64  A    between atoms: _162  and  _165
REMARK   65  A    between atoms: _165  and  _166
REMARK   66  A    between atoms: _171  and  _173
REMARK   67  A    between atoms: _173  and  _174
REMARK   68  A    between atoms: _173  and  _176
REMARK   69  A    between atoms: _176  and  _177
REMARK   70  A    between atoms: _180  and  _182
REMARK   71  A    between atoms: _182  and  _183
REMARK   72  A    between atoms: _182  and  _185
REMARK   73  A    between atoms: _185  and  _186
REMARK   74  A    between atoms: _186  and  _187
REMARK   75  A    between atoms: _192  and  _194
REMARK   76  A    between atoms: _194  and  _195
REMARK   77  A    between atoms: _194  and  _197
REMARK   78  A    between atoms: _197  and  _198
REMARK   79  A    between atoms: _198  and  _199
REMARK   80  A    between atoms: _202  and  _204
REMARK   81  A    between atoms: _204  and  _205
REMARK   82  A    between atoms: _204  and  _207
REMARK   83  A    between atoms: _207  and  _208
REMARK   84  A    between atoms: _210  and  _212
REMARK   85  A    between atoms: _212  and  _213
REMARK   86  A    between atoms: _212  and  _215
REMARK   87  A    between atoms: _218  and  _220
REMARK   88  A    between atoms: _220  and  _221
REMARK   89  A    between atoms: _220  and  _223
REMARK   90  A    between atoms: _223  and  _224
REMARK   91  A    between atoms: _230  and  _232
REMARK   92  A    between atoms: _232  and  _233
REMARK   93  A    between atoms: _232  and  _235
REMARK   94  A    between atoms: _235  and  _236
REMARK   95  A    between atoms: _236  and  _237
REMARK   96  A    between atoms: _237  and  _238
REMARK   97  A    between atoms: _247  and  _249
REMARK   98  A    between atoms: _249  and  _250
REMARK   99  A    between atoms: _249  and  _252
REMARK  100  A    between atoms: _252  and  _253
REMARK  101  A    between atoms: _259  and  _261
REMARK  102  A    between atoms: _261  and  _262
REMARK  103  A    between atoms: _261  and  _264
REMARK  104  A    between atoms: _264  and  _265
REMARK  105  A    between atoms: _267  and  _269
REMARK  106  A    between atoms: _269  and  _270
REMARK  107  A    between atoms: _269  and  _272
REMARK  108  A    between atoms: _272  and  _273
REMARK  109  A    between atoms: _278  and  _279
REMARK  110  A    between atoms: _281  and  _283
REMARK  111  A    between atoms: _283  and  _284
REMARK  112  A    between atoms: _283  and  _286
REMARK  113  A    between atoms: _286  and  _287
REMARK  114  A    between atoms: _293  and  _295
REMARK  115  A    between atoms: _295  and  _296
REMARK  116  A    between atoms: _295  and  _298
REMARK  117  A    between atoms: _298  and  _299
REMARK  118  A    between atoms: _302  and  _304
REMARK  119  A    between atoms: _304  and  _305
REMARK  120  A    between atoms: _304  and  _307
REMARK  121  A    between atoms: _310  and  _312
REMARK  122  A    between atoms: _312  and  _313
REMARK  123  A    between atoms: _312  and  _315
REMARK  124  A    between atoms: _315  and  _316
REMARK  125  A    between atoms: _321  and  _322
REMARK  126  A    between atoms: _324  and  _326
REMARK  127  A    between atoms: _326  and  _327
REMARK  128  A    between atoms: _329  and  _331
REMARK  129  A    between atoms: _331  and  _332
REMARK  130  A    between atoms: _335  and  _337
REMARK  131  A    between atoms: _337  and  _338
REMARK  132  A    between atoms: _337  and  _340
REMARK  133  A    between atoms: _343  and  _345
REMARK  134  A    between atoms: _345  and  _346
REMARK  135  A    between atoms: _345  and  _348
REMARK  136  A    between atoms: _351  and  _353
REMARK  137  A    between atoms: _353  and  _354
REMARK  138  A    between atoms: _353  and  _356
REMARK  139  A    between atoms: _356  and  _357
REMARK  140  A    between atoms: _362  and  _364
REMARK  141  A    between atoms: _364  and  _365
REMARK  142  A    between atoms: _364  and  _367
REMARK  143  A    between atoms: _367  and  _368
REMARK  144  A    between atoms: _378  and  _380
REMARK  145  A    between atoms: _380  and  _381
REMARK  146  A    between atoms: _380  and  _383
REMARK  147  A    between atoms: _383  and  _384
REMARK                            x       y       z     vdW  Elec       q    Type
REMARK                         _______ _______ _______ _____ _____    ______ ____
ROOT
ATOM      1  O   HOH     1     -15.392 -45.171  33.932  0.00  0.00    +0.000 OA
ENDROOT
TORSDOF 0
REMARK  Name = ../refined-set-2016/4m0e/4m0e_pocket.pdb
REMARK  147 active torsions:
REMARK  status: ('A' for Active; 'I' for Inactive)
REMARK    1  A    between atoms: _1  and  _3
REMARK    2  A    between atoms: _3  and  _4
REMARK    3  A    between atoms: _3  and  _6
REMARK    4  A    between atoms: _6  and  _7
REMARK    5  A    between atoms: _12  and  _13
REMARK    6  A    between atoms: _15  and  _17
REMARK    7  A    between atoms: _17  and  _18
REMARK    8  A    between atoms: _17  and  _20
REMARK    9  A    between atoms: _23  and  _25
REMARK   10  A    between atoms: _25  and  _26
REMARK   11  A    between atoms: _25  and  _28
REMARK   12  A    between atoms: _28  and  _29
REMARK   13  A    between atoms: _32  and  _34
REMARK   14  A    between atoms: _34  and  _35
REMARK   15  A    between atoms: _34  and  _37
REMARK   16  A    between atoms: _37  and  _38
REMARK   17  A    between atoms: _41  and  _43
REMARK   18  A    between atoms: _43  and  _44
REMARK   19  A    between atoms: _43  and  _46
REMARK   20  A    between atoms: _46  and  _47
REMARK   21  A    between atoms: _50  and  _52
REMARK   22  A    between atoms: _52  and  _53
REMARK   23  A    between atoms: _52  and  _55
REMARK   24  A    between atoms: _55  and  _56
REMARK   25  A    between atoms: _59  and  _61
REMARK   26  A    between atoms: _61  and  _62
REMARK   27  A    between atoms: _61  and  _64
REMARK   28  A    between atoms: _64  and  _65
REMARK   29  A    between atoms: _75  and  _77
REMARK   30  A    between atoms: _77  and  _78
REMARK   31  A    between atoms: _80  and  _82
REMARK   32  A    between atoms: _82  and  _83
REMARK   33  A    between atoms: _85  and  _87
REMARK   34  A    between atoms: _87  and  _88
REMARK   35  A    between atoms: _87  and  _90
REMARK   36  A    between atoms: _90  and  _91
REMARK   37  A    between atoms: _96  and  _97
REMARK   38  A    between atoms: _99  and  _101
REMARK   39  A    between atoms: _101  and  _102
REMARK   40  A    between atoms: _101  and  _104
REMARK   41  A    between atoms: _104  and  _105
REMARK   42  A    between atoms: _107  and  _109
REMARK   43  A    between atoms: _109  and  _110
REMARK   44  A    between atoms: _109  and  _112
REMARK   45  A    between atoms: _112  and  _113
REMARK   46  A    between atoms: _115  and  _117
REMARK   47  A    between atoms: _117  and  _118
REMARK   48  A    between atoms: _117  and  _120
REMARK   49  A    between atoms: _123  and  _125
REMARK   50  A    between atoms: _125  and  _126
REMARK   51  A    between atoms: _125  and  _128
REMARK   52  A    between atoms: _128  and  _129
REMARK   53  A    between atoms: _134  and  _136
REMARK   54  A    between atoms: _136  and  _137
REMARK   55  A    between atoms: _136  and  _139
REMARK   56  A    between atoms: _139  and  _140
REMARK   57  A    between atoms: _140  and  _141
REMARK   58  A    between atoms: _144  and  _146
REMARK   59  A    between atoms: _146  and  _147
REMARK   60  A    between atoms: _146  and  _149
REMARK   61  A    between atoms: _149  and  _150
REMARK   62  A    between atoms: _160  and  _162
REMARK   63  A    between atoms: _162  and  _163
REMARK   64  A    between atoms: _162  and  _165
REMARK   65  A    between atoms: _165  and  _166
REMARK   66  A    between atoms: _171  and  _173
REMARK   67  A    between atoms: _173  and  _174
REMARK   68  A    between atoms: _173  and  _176
REMARK   69  A    between atoms: _176  and  _177
REMARK   70  A    between atoms: _180  and  _182
REMARK   71  A    between atoms: _182  and  _183
REMARK   72  A    between atoms: _182  and  _185
REMARK   73  A    between atoms: _185  and  _186
REMARK   74  A    between atoms: _186  and  _187
REMARK   75  A    between atoms: _192  and  _194
REMARK   76  A    between atoms: _194  and  _195
REMARK   77  A    between atoms: _194  and  _197
REMARK   78  A    between atoms: _197  and  _198
REMARK   79  A    between atoms: _198  and  _199
REMARK   80  A    between atoms: _202  and  _204
REMARK   81  A    between atoms: _204  and  _205
REMARK   82  A    between atoms: _204  and  _207
REMARK   83  A    between atoms: _207  and  _208
REMARK   84  A    between atoms: _210  and  _212
REMARK   85  A    between atoms: _212  and  _213
REMARK   86  A    between atoms: _212  and  _215
REMARK   87  A    between atoms: _218  and  _220
REMARK   88  A    between atoms: _220  and  _221
REMARK   89  A    between atoms: _220  and  _223
REMARK   90  A    between atoms: _223  and  _224
REMARK   91  A    between atoms: _230  and  _232
REMARK   92  A    between atoms: _232  and  _233
REMARK   93  A    between atoms: _232  and  _235
REMARK   94  A    between atoms: _235  and  _236
REMARK   95  A    between atoms: _236  and  _237
REMARK   96  A    between atoms: _237  and  _238
REMARK   97  A    between atoms: _247  and  _249
REMARK   98  A    between atoms: _249  and  _250
REMARK   99  A    between atoms: _249  and  _252
REMARK  100  A    between atoms: _252  and  _253
REMARK  101  A    between atoms: _259  and  _261
REMARK  102  A    between atoms: _261  and  _262
REMARK  103  A    between atoms: _261  and  _264
REMARK  104  A    between atoms: _264  and  _265
REMARK  105  A    between atoms: _267  and  _269
REMARK  106  A    between atoms: _269  and  _270
REMARK  107  A    between atoms: _269  and  _272
REMARK  108  A    between atoms: _272  and  _273
REMARK  109  A    between atoms: _278  and  _279
REMARK  110  A    between atoms: _281  and  _283
REMARK  111  A    between atoms: _283  and  _284
REMARK  112  A    between atoms: _283  and  _286
REMARK  113  A    between atoms: _286  and  _287
REMARK  114  A    between atoms: _293  and  _295
REMARK  115  A    between atoms: _295  and  _296
REMARK  116  A    between atoms: _295  and  _298
REMARK  117  A    between atoms: _298  and  _299
REMARK  118  A    between atoms: _302  and  _304
REMARK  119  A    between atoms: _304  and  _305
REMARK  120  A    between atoms: _304  and  _307
REMARK  121  A    between atoms: _310  and  _312
REMARK  122  A    between atoms: _312  and  _313
REMARK  123  A    between atoms: _312  and  _315
REMARK  124  A    between atoms: _315  and  _316
REMARK  125  A    between atoms: _321  and  _322
REMARK  126  A    between atoms: _324  and  _326
REMARK  127  A    between atoms: _326  and  _327
REMARK  128  A    between atoms: _329  and  _331
REMARK  129  A    between atoms: _331  and  _332
REMARK  130  A    between atoms: _335  and  _337
REMARK  131  A    between atoms: _337  and  _338
REMARK  132  A    between atoms: _337  and  _340
REMARK  133  A    between atoms: _343  and  _345
REMARK  134  A    between atoms: _345  and  _346
REMARK  135  A    between atoms: _345  and  _348
REMARK  136  A    between atoms: _351  and  _353
REMARK  137  A    between atoms: _353  and  _354
REMARK  138  A    between atoms: _353  and  _356
REMARK  139  A    between atoms: _356  and  _357
REMARK  140  A    between atoms: _362  and  _364
REMARK  141  A    between atoms: _364  and  _365
REMARK  142  A    between atoms: _364  and  _367
REMARK  143  A    between atoms: _367  and  _368
REMARK  144  A    between atoms: _378  and  _380
REMARK  145  A    between atoms: _380  and  _381
REMARK  146  A    between atoms: _380  and  _383
REMARK  147  A    between atoms: _383  and  _384
REMARK                            x       y       z     vdW  Elec       q    Type
REMARK                         _______ _______ _______ _____ _____    ______ ____
ROOT
ATOM      1  O   HOH     1     -10.843 -43.196  17.489  0.00  0.00    +0.000 OA
ENDROOT
TORSDOF 0
REMARK  Name = ../refined-set-2016/4m0e/4m0e_pocket.pdb
REMARK  147 active torsions:
REMARK  status: ('A' for Active; 'I' for Inactive)
REMARK    1  A    between atoms: _1  and  _3
REMARK    2  A    between atoms: _3  and  _4
REMARK    3  A    between atoms: _3  and  _6
REMARK    4  A    between atoms: _6  and  _7
REMARK    5  A    between atoms: _12  and  _13
REMARK    6  A    between atoms: _15  and  _17
REMARK    7  A    between atoms: _17  and  _18
REMARK    8  A    between atoms: _17  and  _20
REMARK    9  A    between atoms: _23  and  _25
REMARK   10  A    between atoms: _25  and  _26
REMARK   11  A    between atoms: _25  and  _28
REMARK   12  A    between atoms: _28  and  _29
REMARK   13  A    between atoms: _32  and  _34
REMARK   14  A    between atoms: _34  and  _35
REMARK   15  A    between atoms: _34  and  _37
REMARK   16  A    between atoms: _37  and  _38
REMARK   17  A    between atoms: _41  and  _43
REMARK   18  A    between atoms: _43  and  _44
REMARK   19  A    between atoms: _43  and  _46
REMARK   20  A    between atoms: _46  and  _47
REMARK   21  A    between atoms: _50  and  _52
REMARK   22  A    between atoms: _52  and  _53
REMARK   23  A    between atoms: _52  and  _55
REMARK   24  A    between atoms: _55  and  _56
REMARK   25  A    between atoms: _59  and  _61
REMARK   26  A    between atoms: _61  and  _62
REMARK   27  A    between atoms: _61  and  _64
REMARK   28  A    between atoms: _64  and  _65
REMARK   29  A    between atoms: _75  and  _77
REMARK   30  A    between atoms: _77  and  _78
REMARK   31  A    between atoms: _80  and  _82
REMARK   32  A    between atoms: _82  and  _83
REMARK   33  A    between atoms: _85  and  _87
REMARK   34  A    between atoms: _87  and  _88
REMARK   35  A    between atoms: _87  and  _90
REMARK   36  A    between atoms: _90  and  _91
REMARK   37  A    between atoms: _96  and  _97
REMARK   38  A    between atoms: _99  and  _101
REMARK   39  A    between atoms: _101  and  _102
REMARK   40  A    between atoms: _101  and  _104
REMARK   41  A    between atoms: _104  and  _105
REMARK   42  A    between atoms: _107  and  _109
REMARK   43  A    between atoms: _109  and  _110
REMARK   44  A    between atoms: _109  and  _112
REMARK   45  A    between atoms: _112  and  _113
REMARK   46  A    between atoms: _115  and  _117
REMARK   47  A    between atoms: _117  and  _118
REMARK   48  A    between atoms: _117  and  _120
REMARK   49  A    between atoms: _123  and  _125
REMARK   50  A    between atoms: _125  and  _126
REMARK   51  A    between atoms: _125  and  _128
REMARK   52  A    between atoms: _128  and  _129
REMARK   53  A    between atoms: _134  and  _136
REMARK   54  A    between atoms: _136  and  _137
REMARK   55  A    between atoms: _136  and  _139
REMARK   56  A    between atoms: _139  and  _140
REMARK   57  A    between atoms: _140  and  _141
REMARK   58  A    between atoms: _144  and  _146
REMARK   59  A    between atoms: _146  and  _147
REMARK   60  A    between atoms: _146  and  _149
REMARK   61  A    between atoms: _149  and  _150
REMARK   62  A    between atoms: _160  and  _162
REMARK   63  A    between atoms: _162  and  _163
REMARK   64  A    between atoms: _162  and  _165
REMARK   65  A    between atoms: _165  and  _166
REMARK   66  A    between atoms: _171  and  _173
REMARK   67  A    between atoms: _173  and  _174
REMARK   68  A    between atoms: _173  and  _176
REMARK   69  A    between atoms: _176  and  _177
REMARK   70  A    between atoms: _180  and  _182
REMARK   71  A    between atoms: _182  and  _183
REMARK   72  A    between atoms: _182  and  _185
REMARK   73  A    between atoms: _185  and  _186
REMARK   74  A    between atoms: _186  and  _187
REMARK   75  A    between atoms: _192  and  _194
REMARK   76  A    between atoms: _194  and  _195
REMARK   77  A    between atoms: _194  and  _197
REMARK   78  A    between atoms: _197  and  _198
REMARK   79  A    between atoms: _198  and  _199
REMARK   80  A    between atoms: _202  and  _204
REMARK   81  A    between atoms: _204  and  _205
REMARK   82  A    between atoms: _204  and  _207
REMARK   83  A    between atoms: _207  and  _208
REMARK   84  A    between atoms: _210  and  _212
REMARK   85  A    between atoms: _212  and  _213
REMARK   86  A    between atoms: _212  and  _215
REMARK   87  A    between atoms: _218  and  _220
REMARK   88  A    between atoms: _220  and  _221
REMARK   89  A    between atoms: _220  and  _223
REMARK   90  A    between atoms: _223  and  _224
REMARK   91  A    between atoms: _230  and  _232
REMARK   92  A    between atoms: _232  and  _233
REMARK   93  A    between atoms: _232  and  _235
REMARK   94  A    between atoms: _235  and  _236
REMARK   95  A    between atoms: _236  and  _237
REMARK   96  A    between atoms: _237  and  _238
REMARK   97  A    between atoms: _247  and  _249
REMARK   98  A    between atoms: _249  and  _250
REMARK   99  A    between atoms: _249  and  _252
REMARK  100  A    between atoms: _252  and  _253
REMARK  101  A    between atoms: _259  and  _261
REMARK  102  A    between atoms: _261  and  _262
REMARK  103  A    between atoms: _261  and  _264
REMARK  104  A    between atoms: _264  and  _265
REMARK  105  A    between atoms: _267  and  _269
REMARK  106  A    between atoms: _269  and  _270
REMARK  107  A    between atoms: _269  and  _272
REMARK  108  A    between atoms: _272  and  _273
REMARK  109  A    between atoms: _278  and  _279
REMARK  110  A    between atoms: _281  and  _283
REMARK  111  A    between atoms: _283  and  _284
REMARK  112  A    between atoms: _283  and  _286
REMARK  113  A    between atoms: _286  and  _287
REMARK  114  A    between atoms: _293  and  _295
REMARK  115  A    between atoms: _295  and  _296
REMARK  116  A    between atoms: _295  and  _298
REMARK  117  A    between atoms: _298  and  _299
REMARK  118  A    between atoms: _302  and  _304
REMARK  119  A    between atoms: _304  and  _305
REMARK  120  A    between atoms: _304  and  _307
REMARK  121  A    between atoms: _310  and  _312
REMARK  122  A    between atoms: _312  and  _313
REMARK  123  A    between atoms: _312  and  _315
REMARK  124  A    between atoms: _315  and  _316
REMARK  125  A    between atoms: _321  and  _322
REMARK  126  A    between atoms: _324  and  _326
REMARK  127  A    between atoms: _326  and  _327
REMARK  128  A    between atoms: _329  and  _331
REMARK  129  A    between atoms: _331  and  _332
REMARK  130  A    between atoms: _335  and  _337
REMARK  131  A    between atoms: _337  and  _338
REMARK  132  A    between atoms: _337  and  _340
REMARK  133  A    between atoms: _343  and  _345
REMARK  134  A    between atoms: _345  and  _346
REMARK  135  A    between atoms: _345  and  _348
REMARK  136  A    between atoms: _351  and  _353
REMARK  137  A    between atoms: _353  and  _354
REMARK  138  A    between atoms: _353  and  _356
REMARK  139  A    between atoms: _356  and  _357
REMARK  140  A    between atoms: _362  and  _364
REMARK  141  A    between atoms: _364  and  _365
REMARK  142  A    between atoms: _364  and  _367
REMARK  143  A    between atoms: _367  and  _368
REMARK  144  A    between atoms: _378  and  _380
REMARK  145  A    between atoms: _380  and  _381
REMARK  146  A    between atoms: _380  and  _383
REMARK  147  A    between atoms: _383  and  _384
REMARK                            x       y       z     vdW  Elec       q    Type
REMARK                         _______ _______ _______ _____ _____    ______ ____
ROOT
ATOM      1  O   HOH     1     -16.307 -37.212  16.865  0.00  0.00    +0.000 OA
ENDROOT
TORSDOF 0
REMARK  Name = ../refined-set-2016/4m0e/4m0e_pocket.pdb
REMARK  147 active torsions:
REMARK  status: ('A' for Active; 'I' for Inactive)
REMARK    1  A    between atoms: _1  and  _3
REMARK    2  A    between atoms: _3  and  _4
REMARK    3  A    between atoms: _3  and  _6
REMARK    4  A    between atoms: _6  and  _7
REMARK    5  A    between atoms: _12  and  _13
REMARK    6  A    between atoms: _15  and  _17
REMARK    7  A    between atoms: _17  and  _18
REMARK    8  A    between atoms: _17  and  _20
REMARK    9  A    between atoms: _23  and  _25
REMARK   10  A    between atoms: _25  and  _26
REMARK   11  A    between atoms: _25  and  _28
REMARK   12  A    between atoms: _28  and  _29
REMARK   13  A    between atoms: _32  and  _34
REMARK   14  A    between atoms: _34  and  _35
REMARK   15  A    between atoms: _34  and  _37
REMARK   16  A    between atoms: _37  and  _38
REMARK   17  A    between atoms: _41  and  _43
REMARK   18  A    between atoms: _43  and  _44
REMARK   19  A    between atoms: _43  and  _46
REMARK   20  A    between atoms: _46  and  _47
REMARK   21  A    between atoms: _50  and  _52
REMARK   22  A    between atoms: _52  and  _53
REMARK   23  A    between atoms: _52  and  _55
REMARK   24  A    between atoms: _55  and  _56
REMARK   25  A    between atoms: _59  and  _61
REMARK   26  A    between atoms: _61  and  _62
REMARK   27  A    between atoms: _61  and  _64
REMARK   28  A    between atoms: _64  and  _65
REMARK   29  A    between atoms: _75  and  _77
REMARK   30  A    between atoms: _77  and  _78
REMARK   31  A    between atoms: _80  and  _82
REMARK   32  A    between atoms: _82  and  _83
REMARK   33  A    between atoms: _85  and  _87
REMARK   34  A    between atoms: _87  and  _88
REMARK   35  A    between atoms: _87  and  _90
REMARK   36  A    between atoms: _90  and  _91
REMARK   37  A    between atoms: _96  and  _97
REMARK   38  A    between atoms: _99  and  _101
REMARK   39  A    between atoms: _101  and  _102
REMARK   40  A    between atoms: _101  and  _104
REMARK   41  A    between atoms: _104  and  _105
REMARK   42  A    between atoms: _107  and  _109
REMARK   43  A    between atoms: _109  and  _110
REMARK   44  A    between atoms: _109  and  _112
REMARK   45  A    between atoms: _112  and  _113
REMARK   46  A    between atoms: _115  and  _117
REMARK   47  A    between atoms: _117  and  _118
REMARK   48  A    between atoms: _117  and  _120
REMARK   49  A    between atoms: _123  and  _125
REMARK   50  A    between atoms: _125  and  _126
REMARK   51  A    between atoms: _125  and  _128
REMARK   52  A    between atoms: _128  and  _129
REMARK   53  A    between atoms: _134  and  _136
REMARK   54  A    between atoms: _136  and  _137
REMARK   55  A    between atoms: _136  and  _139
REMARK   56  A    between atoms: _139  and  _140
REMARK   57  A    between atoms: _140  and  _141
REMARK   58  A    between atoms: _144  and  _146
REMARK   59  A    between atoms: _146  and  _147
REMARK   60  A    between atoms: _146  and  _149
REMARK   61  A    between atoms: _149  and  _150
REMARK   62  A    between atoms: _160  and  _162
REMARK   63  A    between atoms: _162  and  _163
REMARK   64  A    between atoms: _162  and  _165
REMARK   65  A    between atoms: _165  and  _166
REMARK   66  A    between atoms: _171  and  _173
REMARK   67  A    between atoms: _173  and  _174
REMARK   68  A    between atoms: _173  and  _176
REMARK   69  A    between atoms: _176  and  _177
REMARK   70  A    between atoms: _180  and  _182
REMARK   71  A    between atoms: _182  and  _183
REMARK   72  A    between atoms: _182  and  _185
REMARK   73  A    between atoms: _185  and  _186
REMARK   74  A    between atoms: _186  and  _187
REMARK   75  A    between atoms: _192  and  _194
REMARK   76  A    between atoms: _194  and  _195
REMARK   77  A    between atoms: _194  and  _197
REMARK   78  A    between atoms: _197  and  _198
REMARK   79  A    between atoms: _198  and  _199
REMARK   80  A    between atoms: _202  and  _204
REMARK   81  A    between atoms: _204  and  _205
REMARK   82  A    between atoms: _204  and  _207
REMARK   83  A    between atoms: _207  and  _208
REMARK   84  A    between atoms: _210  and  _212
REMARK   85  A    between atoms: _212  and  _213
REMARK   86  A    between atoms: _212  and  _215
REMARK   87  A    between atoms: _218  and  _220
REMARK   88  A    between atoms: _220  and  _221
REMARK   89  A    between atoms: _220  and  _223
REMARK   90  A    between atoms: _223  and  _224
REMARK   91  A    between atoms: _230  and  _232
REMARK   92  A    between atoms: _232  and  _233
REMARK   93  A    between atoms: _232  and  _235
REMARK   94  A    between atoms: _235  and  _236
REMARK   95  A    between atoms: _236  and  _237
REMARK   96  A    between atoms: _237  and  _238
REMARK   97  A    between atoms: _247  and  _249
REMARK   98  A    between atoms: _249  and  _250
REMARK   99  A    between atoms: _249  and  _252
REMARK  100  A    between atoms: _252  and  _253
REMARK  101  A    between atoms: _259  and  _261
REMARK  102  A    between atoms: _261  and  _262
REMARK  103  A    between atoms: _261  and  _264
REMARK  104  A    between atoms: _264  and  _265
REMARK  105  A    between atoms: _267  and  _269
REMARK  106  A    between atoms: _269  and  _270
REMARK  107  A    between atoms: _269  and  _272
REMARK  108  A    between atoms: _272  and  _273
REMARK  109  A    between atoms: _278  and  _279
REMARK  110  A    between atoms: _281  and  _283
REMARK  111  A    between atoms: _283  and  _284
REMARK  112  A    between atoms: _283  and  _286
REMARK  113  A    between atoms: _286  and  _287
REMARK  114  A    between atoms: _293  and  _295
REMARK  115  A    between atoms: _295  and  _296
REMARK  116  A    between atoms: _295  and  _298
REMARK  117  A    between atoms: _298  and  _299
REMARK  118  A    between atoms: _302  and  _304
REMARK  119  A    between atoms: _304  and  _305
REMARK  120  A    between atoms: _304  and  _307
REMARK  121  A    between atoms: _310  and  _312
REMARK  122  A    between atoms: _312  and  _313
REMARK  123  A    between atoms: _312  and  _315
REMARK  124  A    between atoms: _315  and  _316
REMARK  125  A    between atoms: _321  and  _322
REMARK  126  A    between atoms: _324  and  _326
REMARK  127  A    between atoms: _326  and  _327
REMARK  128  A    between atoms: _329  and  _331
REMARK  129  A    between atoms: _331  and  _332
REMARK  130  A    between atoms: _335  and  _337
REMARK  131  A    between atoms: _337  and  _338
REMARK  132  A    between atoms: _337  and  _340
REMARK  133  A    between atoms: _343  and  _345
REMARK  134  A    between atoms: _345  and  _346
REMARK  135  A    between atoms: _345  and  _348
REMARK  136  A    between atoms: _351  and  _353
REMARK  137  A    between atoms: _353  and  _354
REMARK  138  A    between atoms: _353  and  _356
REMARK  139  A    between atoms: _356  and  _357
REMARK  140  A    between atoms: _362  and  _364
REMARK  141  A    between atoms: _364  and  _365
REMARK  142  A    between atoms: _364  and  _367
REMARK  143  A    between atoms: _367  and  _368
REMARK  144  A    between atoms: _378  and  _380
REMARK  145  A    between atoms: _380  and  _381
REMARK  146  A    between atoms: _380  and  _383
REMARK  147  A    between atoms: _383  and  _384
REMARK                            x       y       z     vdW  Elec       q    Type
REMARK                         _______ _______ _______ _____ _____    ______ ____
ROOT
ATOM      1  O   HOH     1     -11.477 -43.621  31.010  0.00  0.00    +0.000 OA
ENDROOT
TORSDOF 0
REMARK  Name = ../refined-set-2016/4m0e/4m0e_pocket.pdb
REMARK  147 active torsions:
REMARK  status: ('A' for Active; 'I' for Inactive)
REMARK    1  A    between atoms: _1  and  _3
REMARK    2  A    between atoms: _3  and  _4
REMARK    3  A    between atoms: _3  and  _6
REMARK    4  A    between atoms: _6  and  _7
REMARK    5  A    between atoms: _12  and  _13
REMARK    6  A    between atoms: _15  and  _17
REMARK    7  A    between atoms: _17  and  _18
REMARK    8  A    between atoms: _17  and  _20
REMARK    9  A    between atoms: _23  and  _25
REMARK   10  A    between atoms: _25  and  _26
REMARK   11  A    between atoms: _25  and  _28
REMARK   12  A    between atoms: _28  and  _29
REMARK   13  A    between atoms: _32  and  _34
REMARK   14  A    between atoms: _34  and  _35
REMARK   15  A    between atoms: _34  and  _37
REMARK   16  A    between atoms: _37  and  _38
REMARK   17  A    between atoms: _41  and  _43
REMARK   18  A    between atoms: _43  and  _44
REMARK   19  A    between atoms: _43  and  _46
REMARK   20  A    between atoms: _46  and  _47
REMARK   21  A    between atoms: _50  and  _52
REMARK   22  A    between atoms: _52  and  _53
REMARK   23  A    between atoms: _52  and  _55
REMARK   24  A    between atoms: _55  and  _56
REMARK   25  A    between atoms: _59  and  _61
REMARK   26  A    between atoms: _61  and  _62
REMARK   27  A    between atoms: _61  and  _64
REMARK   28  A    between atoms: _64  and  _65
REMARK   29  A    between atoms: _75  and  _77
REMARK   30  A    between atoms: _77  and  _78
REMARK   31  A    between atoms: _80  and  _82
REMARK   32  A    between atoms: _82  and  _83
REMARK   33  A    between atoms: _85  and  _87
REMARK   34  A    between atoms: _87  and  _88
REMARK   35  A    between atoms: _87  and  _90
REMARK   36  A    between atoms: _90  and  _91
REMARK   37  A    between atoms: _96  and  _97
REMARK   38  A    between atoms: _99  and  _101
REMARK   39  A    between atoms: _101  and  _102
REMARK   40  A    between atoms: _101  and  _104
REMARK   41  A    between atoms: _104  and  _105
REMARK   42  A    between atoms: _107  and  _109
REMARK   43  A    between atoms: _109  and  _110
REMARK   44  A    between atoms: _109  and  _112
REMARK   45  A    between atoms: _112  and  _113
REMARK   46  A    between atoms: _115  and  _117
REMARK   47  A    between atoms: _117  and  _118
REMARK   48  A    between atoms: _117  and  _120
REMARK   49  A    between atoms: _123  and  _125
REMARK   50  A    between atoms: _125  and  _126
REMARK   51  A    between atoms: _125  and  _128
REMARK   52  A    between atoms: _128  and  _129
REMARK   53  A    between atoms: _134  and  _136
REMARK   54  A    between atoms: _136  and  _137
REMARK   55  A    between atoms: _136  and  _139
REMARK   56  A    between atoms: _139  and  _140
REMARK   57  A    between atoms: _140  and  _141
REMARK   58  A    between atoms: _144  and  _146
REMARK   59  A    between atoms: _146  and  _147
REMARK   60  A    between atoms: _146  and  _149
REMARK   61  A    between atoms: _149  and  _150
REMARK   62  A    between atoms: _160  and  _162
REMARK   63  A    between atoms: _162  and  _163
REMARK   64  A    between atoms: _162  and  _165
REMARK   65  A    between atoms: _165  and  _166
REMARK   66  A    between atoms: _171  and  _173
REMARK   67  A    between atoms: _173  and  _174
REMARK   68  A    between atoms: _173  and  _176
REMARK   69  A    between atoms: _176  and  _177
REMARK   70  A    between atoms: _180  and  _182
REMARK   71  A    between atoms: _182  and  _183
REMARK   72  A    between atoms: _182  and  _185
REMARK   73  A    between atoms: _185  and  _186
REMARK   74  A    between atoms: _186  and  _187
REMARK   75  A    between atoms: _192  and  _194
REMARK   76  A    between atoms: _194  and  _195
REMARK   77  A    between atoms: _194  and  _197
REMARK   78  A    between atoms: _197  and  _198
REMARK   79  A    between atoms: _198  and  _199
REMARK   80  A    between atoms: _202  and  _204
REMARK   81  A    between atoms: _204  and  _205
REMARK   82  A    between atoms: _204  and  _207
REMARK   83  A    between atoms: _207  and  _208
REMARK   84  A    between atoms: _210  and  _212
REMARK   85  A    between atoms: _212  and  _213
REMARK   86  A    between atoms: _212  and  _215
REMARK   87  A    between atoms: _218  and  _220
REMARK   88  A    between atoms: _220  and  _221
REMARK   89  A    between atoms: _220  and  _223
REMARK   90  A    between atoms: _223  and  _224
REMARK   91  A    between atoms: _230  and  _232
REMARK   92  A    between atoms: _232  and  _233
REMARK   93  A    between atoms: _232  and  _235
REMARK   94  A    between atoms: _235  and  _236
REMARK   95  A    between atoms: _236  and  _237
REMARK   96  A    between atoms: _237  and  _238
REMARK   97  A    between atoms: _247  and  _249
REMARK   98  A    between atoms: _249  and  _250
REMARK   99  A    between atoms: _249  and  _252
REMARK  100  A    between atoms: _252  and  _253
REMARK  101  A    between atoms: _259  and  _261
REMARK  102  A    between atoms: _261  and  _262
REMARK  103  A    between atoms: _261  and  _264
REMARK  104  A    between atoms: _264  and  _265
REMARK  105  A    between atoms: _267  and  _269
REMARK  106  A    between atoms: _269  and  _270
REMARK  107  A    between atoms: _269  and  _272
REMARK  108  A    between atoms: _272  and  _273
REMARK  109  A    between atoms: _278  and  _279
REMARK  110  A    between atoms: _281  and  _283
REMARK  111  A    between atoms: _283  and  _284
REMARK  112  A    between atoms: _283  and  _286
REMARK  113  A    between atoms: _286  and  _287
REMARK  114  A    between atoms: _293  and  _295
REMARK  115  A    between atoms: _295  and  _296
REMARK  116  A    between atoms: _295  and  _298
REMARK  117  A    between atoms: _298  and  _299
REMARK  118  A    between atoms: _302  and  _304
REMARK  119  A    between atoms: _304  and  _305
REMARK  120  A    between atoms: _304  and  _307
REMARK  121  A    between atoms: _310  and  _312
REMARK  122  A    between atoms: _312  and  _313
REMARK  123  A    between atoms: _312  and  _315
REMARK  124  A    between atoms: _315  and  _316
REMARK  125  A    between atoms: _321  and  _322
REMARK  126  A    between atoms: _324  and  _326
REMARK  127  A    between atoms: _326  and  _327
REMARK  128  A    between atoms: _329  and  _331
REMARK  129  A    between atoms: _331  and  _332
REMARK  130  A    between atoms: _335  and  _337
REMARK  131  A    between atoms: _337  and  _338
REMARK  132  A    between atoms: _337  and  _340
REMARK  133  A    between atoms: _343  and  _345
REMARK  134  A    between atoms: _345  and  _346
REMARK  135  A    between atoms: _345  and  _348
REMARK  136  A    between atoms: _351  and  _353
REMARK  137  A    between atoms: _353  and  _354
REMARK  138  A    between atoms: _353  and  _356
REMARK  139  A    between atoms: _356  and  _357
REMARK  140  A    between atoms: _362  and  _364
REMARK  141  A    between atoms: _364  and  _365
REMARK  142  A    between atoms: _364  and  _367
REMARK  143  A    between atoms: _367  and  _368
REMARK  144  A    between atoms: _378  and  _380
REMARK  145  A    between atoms: _380  and  _381
REMARK  146  A    between atoms: _380  and  _383
REMARK  147  A    between atoms: _383  and  _384
REMARK                            x       y       z     vdW  Elec       q    Type
REMARK                         _______ _______ _______ _____ _____    ______ ____
ROOT
ATOM      1  O   HOH     1     -15.881 -42.284  31.207  0.00  0.00    +0.000 OA
ENDROOT
TORSDOF 0
REMARK  Name = ../refined-set-2016/4m0e/4m0e_pocket.pdb
REMARK  147 active torsions:
REMARK  status: ('A' for Active; 'I' for Inactive)
REMARK    1  A    between atoms: _1  and  _3
REMARK    2  A    between atoms: _3  and  _4
REMARK    3  A    between atoms: _3  and  _6
REMARK    4  A    between atoms: _6  and  _7
REMARK    5  A    between atoms: _12  and  _13
REMARK    6  A    between atoms: _15  and  _17
REMARK    7  A    between atoms: _17  and  _18
REMARK    8  A    between atoms: _17  and  _20
REMARK    9  A    between atoms: _23  and  _25
REMARK   10  A    between atoms: _25  and  _26
REMARK   11  A    between atoms: _25  and  _28
REMARK   12  A    between atoms: _28  and  _29
REMARK   13  A    between atoms: _32  and  _34
REMARK   14  A    between atoms: _34  and  _35
REMARK   15  A    between atoms: _34  and  _37
REMARK   16  A    between atoms: _37  and  _38
REMARK   17  A    between atoms: _41  and  _43
REMARK   18  A    between atoms: _43  and  _44
REMARK   19  A    between atoms: _43  and  _46
REMARK   20  A    between atoms: _46  and  _47
REMARK   21  A    between atoms: _50  and  _52
REMARK   22  A    between atoms: _52  and  _53
REMARK   23  A    between atoms: _52  and  _55
REMARK   24  A    between atoms: _55  and  _56
REMARK   25  A    between atoms: _59  and  _61
REMARK   26  A    between atoms: _61  and  _62
REMARK   27  A    between atoms: _61  and  _64
REMARK   28  A    between atoms: _64  and  _65
REMARK   29  A    between atoms: _75  and  _77
REMARK   30  A    between atoms: _77  and  _78
REMARK   31  A    between atoms: _80  and  _82
REMARK   32  A    between atoms: _82  and  _83
REMARK   33  A    between atoms: _85  and  _87
REMARK   34  A    between atoms: _87  and  _88
REMARK   35  A    between atoms: _87  and  _90
REMARK   36  A    between atoms: _90  and  _91
REMARK   37  A    between atoms: _96  and  _97
REMARK   38  A    between atoms: _99  and  _101
REMARK   39  A    between atoms: _101  and  _102
REMARK   40  A    between atoms: _101  and  _104
REMARK   41  A    between atoms: _104  and  _105
REMARK   42  A    between atoms: _107  and  _109
REMARK   43  A    between atoms: _109  and  _110
REMARK   44  A    between atoms: _109  and  _112
REMARK   45  A    between atoms: _112  and  _113
REMARK   46  A    between atoms: _115  and  _117
REMARK   47  A    between atoms: _117  and  _118
REMARK   48  A    between atoms: _117  and  _120
REMARK   49  A    between atoms: _123  and  _125
REMARK   50  A    between atoms: _125  and  _126
REMARK   51  A    between atoms: _125  and  _128
REMARK   52  A    between atoms: _128  and  _129
REMARK   53  A    between atoms: _134  and  _136
REMARK   54  A    between atoms: _136  and  _137
REMARK   55  A    between atoms: _136  and  _139
REMARK   56  A    between atoms: _139  and  _140
REMARK   57  A    between atoms: _140  and  _141
REMARK   58  A    between atoms: _144  and  _146
REMARK   59  A    between atoms: _146  and  _147
REMARK   60  A    between atoms: _146  and  _149
REMARK   61  A    between atoms: _149  and  _150
REMARK   62  A    between atoms: _160  and  _162
REMARK   63  A    between atoms: _162  and  _163
REMARK   64  A    between atoms: _162  and  _165
REMARK   65  A    between atoms: _165  and  _166
REMARK   66  A    between atoms: _171  and  _173
REMARK   67  A    between atoms: _173  and  _174
REMARK   68  A    between atoms: _173  and  _176
REMARK   69  A    between atoms: _176  and  _177
REMARK   70  A    between atoms: _180  and  _182
REMARK   71  A    between atoms: _182  and  _183
REMARK   72  A    between atoms: _182  and  _185
REMARK   73  A    between atoms: _185  and  _186
REMARK   74  A    between atoms: _186  and  _187
REMARK   75  A    between atoms: _192  and  _194
REMARK   76  A    between atoms: _194  and  _195
REMARK   77  A    between atoms: _194  and  _197
REMARK   78  A    between atoms: _197  and  _198
REMARK   79  A    between atoms: _198  and  _199
REMARK   80  A    between atoms: _202  and  _204
REMARK   81  A    between atoms: _204  and  _205
REMARK   82  A    between atoms: _204  and  _207
REMARK   83  A    between atoms: _207  and  _208
REMARK   84  A    between atoms: _210  and  _212
REMARK   85  A    between atoms: _212  and  _213
REMARK   86  A    between atoms: _212  and  _215
REMARK   87  A    between atoms: _218  and  _220
REMARK   88  A    between atoms: _220  and  _221
REMARK   89  A    between atoms: _220  and  _223
REMARK   90  A    between atoms: _223  and  _224
REMARK   91  A    between atoms: _230  and  _232
REMARK   92  A    between atoms: _232  and  _233
REMARK   93  A    between atoms: _232  and  _235
REMARK   94  A    between atoms: _235  and  _236
REMARK   95  A    between atoms: _236  and  _237
REMARK   96  A    between atoms: _237  and  _238
REMARK   97  A    between atoms: _247  and  _249
REMARK   98  A    between atoms: _249  and  _250
REMARK   99  A    between atoms: _249  and  _252
REMARK  100  A    between atoms: _252  and  _253
REMARK  101  A    between atoms: _259  and  _261
REMARK  102  A    between atoms: _261  and  _262
REMARK  103  A    between atoms: _261  and  _264
REMARK  104  A    between atoms: _264  and  _265
REMARK  105  A    between atoms: _267  and  _269
REMARK  106  A    between atoms: _269  and  _270
REMARK  107  A    between atoms: _269  and  _272
REMARK  108  A    between atoms: _272  and  _273
REMARK  109  A    between atoms: _278  and  _279
REMARK  110  A    between atoms: _281  and  _283
REMARK  111  A    between atoms: _283  and  _284
REMARK  112  A    between atoms: _283  and  _286
REMARK  113  A    between atoms: _286  and  _287
REMARK  114  A    between atoms: _293  and  _295
REMARK  115  A    between atoms: _295  and  _296
REMARK  116  A    between atoms: _295  and  _298
REMARK  117  A    between atoms: _298  and  _299
REMARK  118  A    between atoms: _302  and  _304
REMARK  119  A    between atoms: _304  and  _305
REMARK  120  A    between atoms: _304  and  _307
REMARK  121  A    between atoms: _310  and  _312
REMARK  122  A    between atoms: _312  and  _313
REMARK  123  A    between atoms: _312  and  _315
REMARK  124  A    between atoms: _315  and  _316
REMARK  125  A    between atoms: _321  and  _322
REMARK  126  A    between atoms: _324  and  _326
REMARK  127  A    between atoms: _326  and  _327
REMARK  128  A    between atoms: _329  and  _331
REMARK  129  A    between atoms: _331  and  _332
REMARK  130  A    between atoms: _335  and  _337
REMARK  131  A    between atoms: _337  and  _338
REMARK  132  A    between atoms: _337  and  _340
REMARK  133  A    between atoms: _343  and  _345
REMARK  134  A    between atoms: _345  and  _346
REMARK  135  A    between atoms: _345  and  _348
REMARK  136  A    between atoms: _351  and  _353
REMARK  137  A    between atoms: _353  and  _354
REMARK  138  A    between atoms: _353  and  _356
REMARK  139  A    between atoms: _356  and  _357
REMARK  140  A    between atoms: _362  and  _364
REMARK  141  A    between atoms: _364  and  _365
REMARK  142  A    between atoms: _364  and  _367
REMARK  143  A    between atoms: _367  and  _368
REMARK  144  A    between atoms: _378  and  _380
REMARK  145  A    between atoms: _380  and  _381
REMARK  146  A    between atoms: _380  and  _383
REMARK  147  A    between atoms: _383  and  _384
REMARK                            x       y       z     vdW  Elec       q    Type
REMARK                         _______ _______ _______ _____ _____    ______ ____
ROOT
ATOM      1  O   HOH     1     -14.604 -46.552  31.787  0.00  0.00    +0.000 OA
ENDROOT
TORSDOF 0
REMARK  Name = ../refined-set-2016/4m0e/4m0e_pocket.pdb
REMARK  147 active torsions:
REMARK  status: ('A' for Active; 'I' for Inactive)
REMARK    1  A    between atoms: _1  and  _3
REMARK    2  A    between atoms: _3  and  _4
REMARK    3  A    between atoms: _3  and  _6
REMARK    4  A    between atoms: _6  and  _7
REMARK    5  A    between atoms: _12  and  _13
REMARK    6  A    between atoms: _15  and  _17
REMARK    7  A    between atoms: _17  and  _18
REMARK    8  A    between atoms: _17  and  _20
REMARK    9  A    between atoms: _23  and  _25
REMARK   10  A    between atoms: _25  and  _26
REMARK   11  A    between atoms: _25  and  _28
REMARK   12  A    between atoms: _28  and  _29
REMARK   13  A    between atoms: _32  and  _34
REMARK   14  A    between atoms: _34  and  _35
REMARK   15  A    between atoms: _34  and  _37
REMARK   16  A    between atoms: _37  and  _38
REMARK   17  A    between atoms: _41  and  _43
REMARK   18  A    between atoms: _43  and  _44
REMARK   19  A    between atoms: _43  and  _46
REMARK   20  A    between atoms: _46  and  _47
REMARK   21  A    between atoms: _50  and  _52
REMARK   22  A    between atoms: _52  and  _53
REMARK   23  A    between atoms: _52  and  _55
REMARK   24  A    between atoms: _55  and  _56
REMARK   25  A    between atoms: _59  and  _61
REMARK   26  A    between atoms: _61  and  _62
REMARK   27  A    between atoms: _61  and  _64
REMARK   28  A    between atoms: _64  and  _65
REMARK   29  A    between atoms: _75  and  _77
REMARK   30  A    between atoms: _77  and  _78
REMARK   31  A    between atoms: _80  and  _82
REMARK   32  A    between atoms: _82  and  _83
REMARK   33  A    between atoms: _85  and  _87
REMARK   34  A    between atoms: _87  and  _88
REMARK   35  A    between atoms: _87  and  _90
REMARK   36  A    between atoms: _90  and  _91
REMARK   37  A    between atoms: _96  and  _97
REMARK   38  A    between atoms: _99  and  _101
REMARK   39  A    between atoms: _101  and  _102
REMARK   40  A    between atoms: _101  and  _104
REMARK   41  A    between atoms: _104  and  _105
REMARK   42  A    between atoms: _107  and  _109
REMARK   43  A    between atoms: _109  and  _110
REMARK   44  A    between atoms: _109  and  _112
REMARK   45  A    between atoms: _112  and  _113
REMARK   46  A    between atoms: _115  and  _117
REMARK   47  A    between atoms: _117  and  _118
REMARK   48  A    between atoms: _117  and  _120
REMARK   49  A    between atoms: _123  and  _125
REMARK   50  A    between atoms: _125  and  _126
REMARK   51  A    between atoms: _125  and  _128
REMARK   52  A    between atoms: _128  and  _129
REMARK   53  A    between atoms: _134  and  _136
REMARK   54  A    between atoms: _136  and  _137
REMARK   55  A    between atoms: _136  and  _139
REMARK   56  A    between atoms: _139  and  _140
REMARK   57  A    between atoms: _140  and  _141
REMARK   58  A    between atoms: _144  and  _146
REMARK   59  A    between atoms: _146  and  _147
REMARK   60  A    between atoms: _146  and  _149
REMARK   61  A    between atoms: _149  and  _150
REMARK   62  A    between atoms: _160  and  _162
REMARK   63  A    between atoms: _162  and  _163
REMARK   64  A    between atoms: _162  and  _165
REMARK   65  A    between atoms: _165  and  _166
REMARK   66  A    between atoms: _171  and  _173
REMARK   67  A    between atoms: _173  and  _174
REMARK   68  A    between atoms: _173  and  _176
REMARK   69  A    between atoms: _176  and  _177
REMARK   70  A    between atoms: _180  and  _182
REMARK   71  A    between atoms: _182  and  _183
REMARK   72  A    between atoms: _182  and  _185
REMARK   73  A    between atoms: _185  and  _186
REMARK   74  A    between atoms: _186  and  _187
REMARK   75  A    between atoms: _192  and  _194
REMARK   76  A    between atoms: _194  and  _195
REMARK   77  A    between atoms: _194  and  _197
REMARK   78  A    between atoms: _197  and  _198
REMARK   79  A    between atoms: _198  and  _199
REMARK   80  A    between atoms: _202  and  _204
REMARK   81  A    between atoms: _204  and  _205
REMARK   82  A    between atoms: _204  and  _207
REMARK   83  A    between atoms: _207  and  _208
REMARK   84  A    between atoms: _210  and  _212
REMARK   85  A    between atoms: _212  and  _213
REMARK   86  A    between atoms: _212  and  _215
REMARK   87  A    between atoms: _218  and  _220
REMARK   88  A    between atoms: _220  and  _221
REMARK   89  A    between atoms: _220  and  _223
REMARK   90  A    between atoms: _223  and  _224
REMARK   91  A    between atoms: _230  and  _232
REMARK   92  A    between atoms: _232  and  _233
REMARK   93  A    between atoms: _232  and  _235
REMARK   94  A    between atoms: _235  and  _236
REMARK   95  A    between atoms: _236  and  _237
REMARK   96  A    between atoms: _237  and  _238
REMARK   97  A    between atoms: _247  and  _249
REMARK   98  A    between atoms: _249  and  _250
REMARK   99  A    between atoms: _249  and  _252
REMARK  100  A    between atoms: _252  and  _253
REMARK  101  A    between atoms: _259  and  _261
REMARK  102  A    between atoms: _261  and  _262
REMARK  103  A    between atoms: _261  and  _264
REMARK  104  A    between atoms: _264  and  _265
REMARK  105  A    between atoms: _267  and  _269
REMARK  106  A    between atoms: _269  and  _270
REMARK  107  A    between atoms: _269  and  _272
REMARK  108  A    between atoms: _272  and  _273
REMARK  109  A    between atoms: _278  and  _279
REMARK  110  A    between atoms: _281  and  _283
REMARK  111  A    between atoms: _283  and  _284
REMARK  112  A    between atoms: _283  and  _286
REMARK  113  A    between atoms: _286  and  _287
REMARK  114  A    between atoms: _293  and  _295
REMARK  115  A    between atoms: _295  and  _296
REMARK  116  A    between atoms: _295  and  _298
REMARK  117  A    between atoms: _298  and  _299
REMARK  118  A    between atoms: _302  and  _304
REMARK  119  A    between atoms: _304  and  _305
REMARK  120  A    between atoms: _304  and  _307
REMARK  121  A    between atoms: _310  and  _312
REMARK  122  A    between atoms: _312  and  _313
REMARK  123  A    between atoms: _312  and  _315
REMARK  124  A    between atoms: _315  and  _316
REMARK  125  A    between atoms: _321  and  _322
REMARK  126  A    between atoms: _324  and  _326
REMARK  127  A    between atoms: _326  and  _327
REMARK  128  A    between atoms: _329  and  _331
REMARK  129  A    between atoms: _331  and  _332
REMARK  130  A    between atoms: _335  and  _337
REMARK  131  A    between atoms: _337  and  _338
REMARK  132  A    between atoms: _337  and  _340
REMARK  133  A    between atoms: _343  and  _345
REMARK  134  A    between atoms: _345  and  _346
REMARK  135  A    between atoms: _345  and  _348
REMARK  136  A    between atoms: _351  and  _353
REMARK  137  A    between atoms: _353  and  _354
REMARK  138  A    between atoms: _353  and  _356
REMARK  139  A    between atoms: _356  and  _357
REMARK  140  A    between atoms: _362  and  _364
REMARK  141  A    between atoms: _364  and  _365
REMARK  142  A    between atoms: _364  and  _367
REMARK  143  A    between atoms: _367  and  _368
REMARK  144  A    between atoms: _378  and  _380
REMARK  145  A    between atoms: _380  and  _381
REMARK  146  A    between atoms: _380  and  _383
REMARK  147  A    between atoms: _383  and  _384
REMARK                            x       y       z     vdW  Elec       q    Type
REMARK                         _______ _______ _______ _____ _____    ______ ____
ROOT
ATOM      1  O   HOH     1     -20.716 -43.780  30.110  0.00  0.00    +0.000 OA
ENDROOT
TORSDOF 0
REMARK  Name = ../refined-set-2016/4m0e/4m0e_pocket.pdb
REMARK  147 active torsions:
REMARK  status: ('A' for Active; 'I' for Inactive)
REMARK    1  A    between atoms: _1  and  _3
REMARK    2  A    between atoms: _3  and  _4
REMARK    3  A    between atoms: _3  and  _6
REMARK    4  A    between atoms: _6  and  _7
REMARK    5  A    between atoms: _12  and  _13
REMARK    6  A    between atoms: _15  and  _17
REMARK    7  A    between atoms: _17  and  _18
REMARK    8  A    between atoms: _17  and  _20
REMARK    9  A    between atoms: _23  and  _25
REMARK   10  A    between atoms: _25  and  _26
REMARK   11  A    between atoms: _25  and  _28
REMARK   12  A    between atoms: _28  and  _29
REMARK   13  A    between atoms: _32  and  _34
REMARK   14  A    between atoms: _34  and  _35
REMARK   15  A    between atoms: _34  and  _37
REMARK   16  A    between atoms: _37  and  _38
REMARK   17  A    between atoms: _41  and  _43
REMARK   18  A    between atoms: _43  and  _44
REMARK   19  A    between atoms: _43  and  _46
REMARK   20  A    between atoms: _46  and  _47
REMARK   21  A    between atoms: _50  and  _52
REMARK   22  A    between atoms: _52  and  _53
REMARK   23  A    between atoms: _52  and  _55
REMARK   24  A    between atoms: _55  and  _56
REMARK   25  A    between atoms: _59  and  _61
REMARK   26  A    between atoms: _61  and  _62
REMARK   27  A    between atoms: _61  and  _64
REMARK   28  A    between atoms: _64  and  _65
REMARK   29  A    between atoms: _75  and  _77
REMARK   30  A    between atoms: _77  and  _78
REMARK   31  A    between atoms: _80  and  _82
REMARK   32  A    between atoms: _82  and  _83
REMARK   33  A    between atoms: _85  and  _87
REMARK   34  A    between atoms: _87  and  _88
REMARK   35  A    between atoms: _87  and  _90
REMARK   36  A    between atoms: _90  and  _91
REMARK   37  A    between atoms: _96  and  _97
REMARK   38  A    between atoms: _99  and  _101
REMARK   39  A    between atoms: _101  and  _102
REMARK   40  A    between atoms: _101  and  _104
REMARK   41  A    between atoms: _104  and  _105
REMARK   42  A    between atoms: _107  and  _109
REMARK   43  A    between atoms: _109  and  _110
REMARK   44  A    between atoms: _109  and  _112
REMARK   45  A    between atoms: _112  and  _113
REMARK   46  A    between atoms: _115  and  _117
REMARK   47  A    between atoms: _117  and  _118
REMARK   48  A    between atoms: _117  and  _120
REMARK   49  A    between atoms: _123  and  _125
REMARK   50  A    between atoms: _125  and  _126
REMARK   51  A    between atoms: _125  and  _128
REMARK   52  A    between atoms: _128  and  _129
REMARK   53  A    between atoms: _134  and  _136
REMARK   54  A    between atoms: _136  and  _137
REMARK   55  A    between atoms: _136  and  _139
REMARK   56  A    between atoms: _139  and  _140
REMARK   57  A    between atoms: _140  and  _141
REMARK   58  A    between atoms: _144  and  _146
REMARK   59  A    between atoms: _146  and  _147
REMARK   60  A    between atoms: _146  and  _149
REMARK   61  A    between atoms: _149  and  _150
REMARK   62  A    between atoms: _160  and  _162
REMARK   63  A    between atoms: _162  and  _163
REMARK   64  A    between atoms: _162  and  _165
REMARK   65  A    between atoms: _165  and  _166
REMARK   66  A    between atoms: _171  and  _173
REMARK   67  A    between atoms: _173  and  _174
REMARK   68  A    between atoms: _173  and  _176
REMARK   69  A    between atoms: _176  and  _177
REMARK   70  A    between atoms: _180  and  _182
REMARK   71  A    between atoms: _182  and  _183
REMARK   72  A    between atoms: _182  and  _185
REMARK   73  A    between atoms: _185  and  _186
REMARK   74  A    between atoms: _186  and  _187
REMARK   75  A    between atoms: _192  and  _194
REMARK   76  A    between atoms: _194  and  _195
REMARK   77  A    between atoms: _194  and  _197
REMARK   78  A    between atoms: _197  and  _198
REMARK   79  A    between atoms: _198  and  _199
REMARK   80  A    between atoms: _202  and  _204
REMARK   81  A    between atoms: _204  and  _205
REMARK   82  A    between atoms: _204  and  _207
REMARK   83  A    between atoms: _207  and  _208
REMARK   84  A    between atoms: _210  and  _212
REMARK   85  A    between atoms: _212  and  _213
REMARK   86  A    between atoms: _212  and  _215
REMARK   87  A    between atoms: _218  and  _220
REMARK   88  A    between atoms: _220  and  _221
REMARK   89  A    between atoms: _220  and  _223
REMARK   90  A    between atoms: _223  and  _224
REMARK   91  A    between atoms: _230  and  _232
REMARK   92  A    between atoms: _232  and  _233
REMARK   93  A    between atoms: _232  and  _235
REMARK   94  A    between atoms: _235  and  _236
REMARK   95  A    between atoms: _236  and  _237
REMARK   96  A    between atoms: _237  and  _238
REMARK   97  A    between atoms: _247  and  _249
REMARK   98  A    between atoms: _249  and  _250
REMARK   99  A    between atoms: _249  and  _252
REMARK  100  A    between atoms: _252  and  _253
REMARK  101  A    between atoms: _259  and  _261
REMARK  102  A    between atoms: _261  and  _262
REMARK  103  A    between atoms: _261  and  _264
REMARK  104  A    between atoms: _264  and  _265
REMARK  105  A    between atoms: _267  and  _269
REMARK  106  A    between atoms: _269  and  _270
REMARK  107  A    between atoms: _269  and  _272
REMARK  108  A    between atoms: _272  and  _273
REMARK  109  A    between atoms: _278  and  _279
REMARK  110  A    between atoms: _281  and  _283
REMARK  111  A    between atoms: _283  and  _284
REMARK  112  A    between atoms: _283  and  _286
REMARK  113  A    between atoms: _286  and  _287
REMARK  114  A    between atoms: _293  and  _295
REMARK  115  A    between atoms: _295  and  _296
REMARK  116  A    between atoms: _295  and  _298
REMARK  117  A    between atoms: _298  and  _299
REMARK  118  A    between atoms: _302  and  _304
REMARK  119  A    between atoms: _304  and  _305
REMARK  120  A    between atoms: _304  and  _307
REMARK  121  A    between atoms: _310  and  _312
REMARK  122  A    between atoms: _312  and  _313
REMARK  123  A    between atoms: _312  and  _315
REMARK  124  A    between atoms: _315  and  _316
REMARK  125  A    between atoms: _321  and  _322
REMARK  126  A    between atoms: _324  and  _326
REMARK  127  A    between atoms: _326  and  _327
REMARK  128  A    between atoms: _329  and  _331
REMARK  129  A    between atoms: _331  and  _332
REMARK  130  A    between atoms: _335  and  _337
REMARK  131  A    between atoms: _337  and  _338
REMARK  132  A    between atoms: _337  and  _340
REMARK  133  A    between atoms: _343  and  _345
REMARK  134  A    between atoms: _345  and  _346
REMARK  135  A    between atoms: _345  and  _348
REMARK  136  A    between atoms: _351  and  _353
REMARK  137  A    between atoms: _353  and  _354
REMARK  138  A    between atoms: _353  and  _356
REMARK  139  A    between atoms: _356  and  _357
REMARK  140  A    between atoms: _362  and  _364
REMARK  141  A    between atoms: _364  and  _365
REMARK  142  A    between atoms: _364  and  _367
REMARK  143  A    between atoms: _367  and  _368
REMARK  144  A    between atoms: _378  and  _380
REMARK  145  A    between atoms: _380  and  _381
REMARK  146  A    between atoms: _380  and  _383
REMARK  147  A    between atoms: _383  and  _384
REMARK                            x       y       z     vdW  Elec       q    Type
REMARK                         _______ _______ _______ _____ _____    ______ ____
ROOT
ATOM      1  O   HOH     1     -19.048 -39.487  19.818  0.00  0.00    +0.000 OA
ENDROOT
TORSDOF 0
REMARK  Name = ../refined-set-2016/4m0e/4m0e_pocket.pdb
REMARK  147 active torsions:
REMARK  status: ('A' for Active; 'I' for Inactive)
REMARK    1  A    between atoms: _1  and  _3
REMARK    2  A    between atoms: _3  and  _4
REMARK    3  A    between atoms: _3  and  _6
REMARK    4  A    between atoms: _6  and  _7
REMARK    5  A    between atoms: _12  and  _13
REMARK    6  A    between atoms: _15  and  _17
REMARK    7  A    between atoms: _17  and  _18
REMARK    8  A    between atoms: _17  and  _20
REMARK    9  A    between atoms: _23  and  _25
REMARK   10  A    between atoms: _25  and  _26
REMARK   11  A    between atoms: _25  and  _28
REMARK   12  A    between atoms: _28  and  _29
REMARK   13  A    between atoms: _32  and  _34
REMARK   14  A    between atoms: _34  and  _35
REMARK   15  A    between atoms: _34  and  _37
REMARK   16  A    between atoms: _37  and  _38
REMARK   17  A    between atoms: _41  and  _43
REMARK   18  A    between atoms: _43  and  _44
REMARK   19  A    between atoms: _43  and  _46
REMARK   20  A    between atoms: _46  and  _47
REMARK   21  A    between atoms: _50  and  _52
REMARK   22  A    between atoms: _52  and  _53
REMARK   23  A    between atoms: _52  and  _55
REMARK   24  A    between atoms: _55  and  _56
REMARK   25  A    between atoms: _59  and  _61
REMARK   26  A    between atoms: _61  and  _62
REMARK   27  A    between atoms: _61  and  _64
REMARK   28  A    between atoms: _64  and  _65
REMARK   29  A    between atoms: _75  and  _77
REMARK   30  A    between atoms: _77  and  _78
REMARK   31  A    between atoms: _80  and  _82
REMARK   32  A    between atoms: _82  and  _83
REMARK   33  A    between atoms: _85  and  _87
REMARK   34  A    between atoms: _87  and  _88
REMARK   35  A    between atoms: _87  and  _90
REMARK   36  A    between atoms: _90  and  _91
REMARK   37  A    between atoms: _96  and  _97
REMARK   38  A    between atoms: _99  and  _101
REMARK   39  A    between atoms: _101  and  _102
REMARK   40  A    between atoms: _101  and  _104
REMARK   41  A    between atoms: _104  and  _105
REMARK   42  A    between atoms: _107  and  _109
REMARK   43  A    between atoms: _109  and  _110
REMARK   44  A    between atoms: _109  and  _112
REMARK   45  A    between atoms: _112  and  _113
REMARK   46  A    between atoms: _115  and  _117
REMARK   47  A    between atoms: _117  and  _118
REMARK   48  A    between atoms: _117  and  _120
REMARK   49  A    between atoms: _123  and  _125
REMARK   50  A    between atoms: _125  and  _126
REMARK   51  A    between atoms: _125  and  _128
REMARK   52  A    between atoms: _128  and  _129
REMARK   53  A    between atoms: _134  and  _136
REMARK   54  A    between atoms: _136  and  _137
REMARK   55  A    between atoms: _136  and  _139
REMARK   56  A    between atoms: _139  and  _140
REMARK   57  A    between atoms: _140  and  _141
REMARK   58  A    between atoms: _144  and  _146
REMARK   59  A    between atoms: _146  and  _147
REMARK   60  A    between atoms: _146  and  _149
REMARK   61  A    between atoms: _149  and  _150
REMARK   62  A    between atoms: _160  and  _162
REMARK   63  A    between atoms: _162  and  _163
REMARK   64  A    between atoms: _162  and  _165
REMARK   65  A    between atoms: _165  and  _166
REMARK   66  A    between atoms: _171  and  _173
REMARK   67  A    between atoms: _173  and  _174
REMARK   68  A    between atoms: _173  and  _176
REMARK   69  A    between atoms: _176  and  _177
REMARK   70  A    between atoms: _180  and  _182
REMARK   71  A    between atoms: _182  and  _183
REMARK   72  A    between atoms: _182  and  _185
REMARK   73  A    between atoms: _185  and  _186
REMARK   74  A    between atoms: _186  and  _187
REMARK   75  A    between atoms: _192  and  _194
REMARK   76  A    between atoms: _194  and  _195
REMARK   77  A    between atoms: _194  and  _197
REMARK   78  A    between atoms: _197  and  _198
REMARK   79  A    between atoms: _198  and  _199
REMARK   80  A    between atoms: _202  and  _204
REMARK   81  A    between atoms: _204  and  _205
REMARK   82  A    between atoms: _204  and  _207
REMARK   83  A    between atoms: _207  and  _208
REMARK   84  A    between atoms: _210  and  _212
REMARK   85  A    between atoms: _212  and  _213
REMARK   86  A    between atoms: _212  and  _215
REMARK   87  A    between atoms: _218  and  _220
REMARK   88  A    between atoms: _220  and  _221
REMARK   89  A    between atoms: _220  and  _223
REMARK   90  A    between atoms: _223  and  _224
REMARK   91  A    between atoms: _230  and  _232
REMARK   92  A    between atoms: _232  and  _233
REMARK   93  A    between atoms: _232  and  _235
REMARK   94  A    between atoms: _235  and  _236
REMARK   95  A    between atoms: _236  and  _237
REMARK   96  A    between atoms: _237  and  _238
REMARK   97  A    between atoms: _247  and  _249
REMARK   98  A    between atoms: _249  and  _250
REMARK   99  A    between atoms: _249  and  _252
REMARK  100  A    between atoms: _252  and  _253
REMARK  101  A    between atoms: _259  and  _261
REMARK  102  A    between atoms: _261  and  _262
REMARK  103  A    between atoms: _261  and  _264
REMARK  104  A    between atoms: _264  and  _265
REMARK  105  A    between atoms: _267  and  _269
REMARK  106  A    between atoms: _269  and  _270
REMARK  107  A    between atoms: _269  and  _272
REMARK  108  A    between atoms: _272  and  _273
REMARK  109  A    between atoms: _278  and  _279
REMARK  110  A    between atoms: _281  and  _283
REMARK  111  A    between atoms: _283  and  _284
REMARK  112  A    between atoms: _283  and  _286
REMARK  113  A    between atoms: _286  and  _287
REMARK  114  A    between atoms: _293  and  _295
REMARK  115  A    between atoms: _295  and  _296
REMARK  116  A    between atoms: _295  and  _298
REMARK  117  A    between atoms: _298  and  _299
REMARK  118  A    between atoms: _302  and  _304
REMARK  119  A    between atoms: _304  and  _305
REMARK  120  A    between atoms: _304  and  _307
REMARK  121  A    between atoms: _310  and  _312
REMARK  122  A    between atoms: _312  and  _313
REMARK  123  A    between atoms: _312  and  _315
REMARK  124  A    between atoms: _315  and  _316
REMARK  125  A    between atoms: _321  and  _322
REMARK  126  A    between atoms: _324  and  _326
REMARK  127  A    between atoms: _326  and  _327
REMARK  128  A    between atoms: _329  and  _331
REMARK  129  A    between atoms: _331  and  _332
REMARK  130  A    between atoms: _335  and  _337
REMARK  131  A    between atoms: _337  and  _338
REMARK  132  A    between atoms: _337  and  _340
REMARK  133  A    between atoms: _343  and  _345
REMARK  134  A    between atoms: _345  and  _346
REMARK  135  A    between atoms: _345  and  _348
REMARK  136  A    between atoms: _351  and  _353
REMARK  137  A    between atoms: _353  and  _354
REMARK  138  A    between atoms: _353  and  _356
REMARK  139  A    between atoms: _356  and  _357
REMARK  140  A    between atoms: _362  and  _364
REMARK  141  A    between atoms: _364  and  _365
REMARK  142  A    between atoms: _364  and  _367
REMARK  143  A    between atoms: _367  and  _368
REMARK  144  A    between atoms: _378  and  _380
REMARK  145  A    between atoms: _380  and  _381
REMARK  146  A    between atoms: _380  and  _383
REMARK  147  A    between atoms: _383  and  _384
REMARK                            x       y       z     vdW  Elec       q    Type
REMARK                         _______ _______ _______ _____ _____    ______ ____
ROOT
ATOM      1  O   HOH     1      -7.329 -40.874  28.757  0.00  0.00    +0.000 OA
ENDROOT
TORSDOF 0
REMARK  Name = ../refined-set-2016/4m0e/4m0e_pocket.pdb
REMARK  147 active torsions:
REMARK  status: ('A' for Active; 'I' for Inactive)
REMARK    1  A    between atoms: _1  and  _3
REMARK    2  A    between atoms: _3  and  _4
REMARK    3  A    between atoms: _3  and  _6
REMARK    4  A    between atoms: _6  and  _7
REMARK    5  A    between atoms: _12  and  _13
REMARK    6  A    between atoms: _15  and  _17
REMARK    7  A    between atoms: _17  and  _18
REMARK    8  A    between atoms: _17  and  _20
REMARK    9  A    between atoms: _23  and  _25
REMARK   10  A    between atoms: _25  and  _26
REMARK   11  A    between atoms: _25  and  _28
REMARK   12  A    between atoms: _28  and  _29
REMARK   13  A    between atoms: _32  and  _34
REMARK   14  A    between atoms: _34  and  _35
REMARK   15  A    between atoms: _34  and  _37
REMARK   16  A    between atoms: _37  and  _38
REMARK   17  A    between atoms: _41  and  _43
REMARK   18  A    between atoms: _43  and  _44
REMARK   19  A    between atoms: _43  and  _46
REMARK   20  A    between atoms: _46  and  _47
REMARK   21  A    between atoms: _50  and  _52
REMARK   22  A    between atoms: _52  and  _53
REMARK   23  A    between atoms: _52  and  _55
REMARK   24  A    between atoms: _55  and  _56
REMARK   25  A    between atoms: _59  and  _61
REMARK   26  A    between atoms: _61  and  _62
REMARK   27  A    between atoms: _61  and  _64
REMARK   28  A    between atoms: _64  and  _65
REMARK   29  A    between atoms: _75  and  _77
REMARK   30  A    between atoms: _77  and  _78
REMARK   31  A    between atoms: _80  and  _82
REMARK   32  A    between atoms: _82  and  _83
REMARK   33  A    between atoms: _85  and  _87
REMARK   34  A    between atoms: _87  and  _88
REMARK   35  A    between atoms: _87  and  _90
REMARK   36  A    between atoms: _90  and  _91
REMARK   37  A    between atoms: _96  and  _97
REMARK   38  A    between atoms: _99  and  _101
REMARK   39  A    between atoms: _101  and  _102
REMARK   40  A    between atoms: _101  and  _104
REMARK   41  A    between atoms: _104  and  _105
REMARK   42  A    between atoms: _107  and  _109
REMARK   43  A    between atoms: _109  and  _110
REMARK   44  A    between atoms: _109  and  _112
REMARK   45  A    between atoms: _112  and  _113
REMARK   46  A    between atoms: _115  and  _117
REMARK   47  A    between atoms: _117  and  _118
REMARK   48  A    between atoms: _117  and  _120
REMARK   49  A    between atoms: _123  and  _125
REMARK   50  A    between atoms: _125  and  _126
REMARK   51  A    between atoms: _125  and  _128
REMARK   52  A    between atoms: _128  and  _129
REMARK   53  A    between atoms: _134  and  _136
REMARK   54  A    between atoms: _136  and  _137
REMARK   55  A    between atoms: _136  and  _139
REMARK   56  A    between atoms: _139  and  _140
REMARK   57  A    between atoms: _140  and  _141
REMARK   58  A    between atoms: _144  and  _146
REMARK   59  A    between atoms: _146  and  _147
REMARK   60  A    between atoms: _146  and  _149
REMARK   61  A    between atoms: _149  and  _150
REMARK   62  A    between atoms: _160  and  _162
REMARK   63  A    between atoms: _162  and  _163
REMARK   64  A    between atoms: _162  and  _165
REMARK   65  A    between atoms: _165  and  _166
REMARK   66  A    between atoms: _171  and  _173
REMARK   67  A    between atoms: _173  and  _174
REMARK   68  A    between atoms: _173  and  _176
REMARK   69  A    between atoms: _176  and  _177
REMARK   70  A    between atoms: _180  and  _182
REMARK   71  A    between atoms: _182  and  _183
REMARK   72  A    between atoms: _182  and  _185
REMARK   73  A    between atoms: _185  and  _186
REMARK   74  A    between atoms: _186  and  _187
REMARK   75  A    between atoms: _192  and  _194
REMARK   76  A    between atoms: _194  and  _195
REMARK   77  A    between atoms: _194  and  _197
REMARK   78  A    between atoms: _197  and  _198
REMARK   79  A    between atoms: _198  and  _199
REMARK   80  A    between atoms: _202  and  _204
REMARK   81  A    between atoms: _204  and  _205
REMARK   82  A    between atoms: _204  and  _207
REMARK   83  A    between atoms: _207  and  _208
REMARK   84  A    between atoms: _210  and  _212
REMARK   85  A    between atoms: _212  and  _213
REMARK   86  A    between atoms: _212  and  _215
REMARK   87  A    between atoms: _218  and  _220
REMARK   88  A    between atoms: _220  and  _221
REMARK   89  A    between atoms: _220  and  _223
REMARK   90  A    between atoms: _223  and  _224
REMARK   91  A    between atoms: _230  and  _232
REMARK   92  A    between atoms: _232  and  _233
REMARK   93  A    between atoms: _232  and  _235
REMARK   94  A    between atoms: _235  and  _236
REMARK   95  A    between atoms: _236  and  _237
REMARK   96  A    between atoms: _237  and  _238
REMARK   97  A    between atoms: _247  and  _249
REMARK   98  A    between atoms: _249  and  _250
REMARK   99  A    between atoms: _249  and  _252
REMARK  100  A    between atoms: _252  and  _253
REMARK  101  A    between atoms: _259  and  _261
REMARK  102  A    between atoms: _261  and  _262
REMARK  103  A    between atoms: _261  and  _264
REMARK  104  A    between atoms: _264  and  _265
REMARK  105  A    between atoms: _267  and  _269
REMARK  106  A    between atoms: _269  and  _270
REMARK  107  A    between atoms: _269  and  _272
REMARK  108  A    between atoms: _272  and  _273
REMARK  109  A    between atoms: _278  and  _279
REMARK  110  A    between atoms: _281  and  _283
REMARK  111  A    between atoms: _283  and  _284
REMARK  112  A    between atoms: _283  and  _286
REMARK  113  A    between atoms: _286  and  _287
REMARK  114  A    between atoms: _293  and  _295
REMARK  115  A    between atoms: _295  and  _296
REMARK  116  A    between atoms: _295  and  _298
REMARK  117  A    between atoms: _298  and  _299
REMARK  118  A    between atoms: _302  and  _304
REMARK  119  A    between atoms: _304  and  _305
REMARK  120  A    between atoms: _304  and  _307
REMARK  121  A    between atoms: _310  and  _312
REMARK  122  A    between atoms: _312  and  _313
REMARK  123  A    between atoms: _312  and  _315
REMARK  124  A    between atoms: _315  and  _316
REMARK  125  A    between atoms: _321  and  _322
REMARK  126  A    between atoms: _324  and  _326
REMARK  127  A    between atoms: _326  and  _327
REMARK  128  A    between atoms: _329  and  _331
REMARK  129  A    between atoms: _331  and  _332
REMARK  130  A    between atoms: _335  and  _337
REMARK  131  A    between atoms: _337  and  _338
REMARK  132  A    between atoms: _337  and  _340
REMARK  133  A    between atoms: _343  and  _345
REMARK  134  A    between atoms: _345  and  _346
REMARK  135  A    between atoms: _345  and  _348
REMARK  136  A    between atoms: _351  and  _353
REMARK  137  A    between atoms: _353  and  _354
REMARK  138  A    between atoms: _353  and  _356
REMARK  139  A    between atoms: _356  and  _357
REMARK  140  A    between atoms: _362  and  _364
REMARK  141  A    between atoms: _364  and  _365
REMARK  142  A    between atoms: _364  and  _367
REMARK  143  A    between atoms: _367  and  _368
REMARK  144  A    between atoms: _378  and  _380
REMARK  145  A    between atoms: _380  and  _381
REMARK  146  A    between atoms: _380  and  _383
REMARK  147  A    between atoms: _383  and  _384
REMARK                            x       y       z     vdW  Elec       q    Type
REMARK                         _______ _______ _______ _____ _____    ______ ____
ROOT
ATOM      1  O   HOH     1     -11.386 -41.860  30.043  0.00  0.00    +0.000 OA
ENDROOT
TORSDOF 0
REMARK  Name = ../refined-set-2016/4m0e/4m0e_pocket.pdb
REMARK  147 active torsions:
REMARK  status: ('A' for Active; 'I' for Inactive)
REMARK    1  A    between atoms: _1  and  _3
REMARK    2  A    between atoms: _3  and  _4
REMARK    3  A    between atoms: _3  and  _6
REMARK    4  A    between atoms: _6  and  _7
REMARK    5  A    between atoms: _12  and  _13
REMARK    6  A    between atoms: _15  and  _17
REMARK    7  A    between atoms: _17  and  _18
REMARK    8  A    between atoms: _17  and  _20
REMARK    9  A    between atoms: _23  and  _25
REMARK   10  A    between atoms: _25  and  _26
REMARK   11  A    between atoms: _25  and  _28
REMARK   12  A    between atoms: _28  and  _29
REMARK   13  A    between atoms: _32  and  _34
REMARK   14  A    between atoms: _34  and  _35
REMARK   15  A    between atoms: _34  and  _37
REMARK   16  A    between atoms: _37  and  _38
REMARK   17  A    between atoms: _41  and  _43
REMARK   18  A    between atoms: _43  and  _44
REMARK   19  A    between atoms: _43  and  _46
REMARK   20  A    between atoms: _46  and  _47
REMARK   21  A    between atoms: _50  and  _52
REMARK   22  A    between atoms: _52  and  _53
REMARK   23  A    between atoms: _52  and  _55
REMARK   24  A    between atoms: _55  and  _56
REMARK   25  A    between atoms: _59  and  _61
REMARK   26  A    between atoms: _61  and  _62
REMARK   27  A    between atoms: _61  and  _64
REMARK   28  A    between atoms: _64  and  _65
REMARK   29  A    between atoms: _75  and  _77
REMARK   30  A    between atoms: _77  and  _78
REMARK   31  A    between atoms: _80  and  _82
REMARK   32  A    between atoms: _82  and  _83
REMARK   33  A    between atoms: _85  and  _87
REMARK   34  A    between atoms: _87  and  _88
REMARK   35  A    between atoms: _87  and  _90
REMARK   36  A    between atoms: _90  and  _91
REMARK   37  A    between atoms: _96  and  _97
REMARK   38  A    between atoms: _99  and  _101
REMARK   39  A    between atoms: _101  and  _102
REMARK   40  A    between atoms: _101  and  _104
REMARK   41  A    between atoms: _104  and  _105
REMARK   42  A    between atoms: _107  and  _109
REMARK   43  A    between atoms: _109  and  _110
REMARK   44  A    between atoms: _109  and  _112
REMARK   45  A    between atoms: _112  and  _113
REMARK   46  A    between atoms: _115  and  _117
REMARK   47  A    between atoms: _117  and  _118
REMARK   48  A    between atoms: _117  and  _120
REMARK   49  A    between atoms: _123  and  _125
REMARK   50  A    between atoms: _125  and  _126
REMARK   51  A    between atoms: _125  and  _128
REMARK   52  A    between atoms: _128  and  _129
REMARK   53  A    between atoms: _134  and  _136
REMARK   54  A    between atoms: _136  and  _137
REMARK   55  A    between atoms: _136  and  _139
REMARK   56  A    between atoms: _139  and  _140
REMARK   57  A    between atoms: _140  and  _141
REMARK   58  A    between atoms: _144  and  _146
REMARK   59  A    between atoms: _146  and  _147
REMARK   60  A    between atoms: _146  and  _149
REMARK   61  A    between atoms: _149  and  _150
REMARK   62  A    between atoms: _160  and  _162
REMARK   63  A    between atoms: _162  and  _163
REMARK   64  A    between atoms: _162  and  _165
REMARK   65  A    between atoms: _165  and  _166
REMARK   66  A    between atoms: _171  and  _173
REMARK   67  A    between atoms: _173  and  _174
REMARK   68  A    between atoms: _173  and  _176
REMARK   69  A    between atoms: _176  and  _177
REMARK   70  A    between atoms: _180  and  _182
REMARK   71  A    between atoms: _182  and  _183
REMARK   72  A    between atoms: _182  and  _185
REMARK   73  A    between atoms: _185  and  _186
REMARK   74  A    between atoms: _186  and  _187
REMARK   75  A    between atoms: _192  and  _194
REMARK   76  A    between atoms: _194  and  _195
REMARK   77  A    between atoms: _194  and  _197
REMARK   78  A    between atoms: _197  and  _198
REMARK   79  A    between atoms: _198  and  _199
REMARK   80  A    between atoms: _202  and  _204
REMARK   81  A    between atoms: _204  and  _205
REMARK   82  A    between atoms: _204  and  _207
REMARK   83  A    between atoms: _207  and  _208
REMARK   84  A    between atoms: _210  and  _212
REMARK   85  A    between atoms: _212  and  _213
REMARK   86  A    between atoms: _212  and  _215
REMARK   87  A    between atoms: _218  and  _220
REMARK   88  A    between atoms: _220  and  _221
REMARK   89  A    between atoms: _220  and  _223
REMARK   90  A    between atoms: _223  and  _224
REMARK   91  A    between atoms: _230  and  _232
REMARK   92  A    between atoms: _232  and  _233
REMARK   93  A    between atoms: _232  and  _235
REMARK   94  A    between atoms: _235  and  _236
REMARK   95  A    between atoms: _236  and  _237
REMARK   96  A    between atoms: _237  and  _238
REMARK   97  A    between atoms: _247  and  _249
REMARK   98  A    between atoms: _249  and  _250
REMARK   99  A    between atoms: _249  and  _252
REMARK  100  A    between atoms: _252  and  _253
REMARK  101  A    between atoms: _259  and  _261
REMARK  102  A    between atoms: _261  and  _262
REMARK  103  A    between atoms: _261  and  _264
REMARK  104  A    between atoms: _264  and  _265
REMARK  105  A    between atoms: _267  and  _269
REMARK  106  A    between atoms: _269  and  _270
REMARK  107  A    between atoms: _269  and  _272
REMARK  108  A    between atoms: _272  and  _273
REMARK  109  A    between atoms: _278  and  _279
REMARK  110  A    between atoms: _281  and  _283
REMARK  111  A    between atoms: _283  and  _284
REMARK  112  A    between atoms: _283  and  _286
REMARK  113  A    between atoms: _286  and  _287
REMARK  114  A    between atoms: _293  and  _295
REMARK  115  A    between atoms: _295  and  _296
REMARK  116  A    between atoms: _295  and  _298
REMARK  117  A    between atoms: _298  and  _299
REMARK  118  A    between atoms: _302  and  _304
REMARK  119  A    between atoms: _304  and  _305
REMARK  120  A    between atoms: _304  and  _307
REMARK  121  A    between atoms: _310  and  _312
REMARK  122  A    between atoms: _312  and  _313
REMARK  123  A    between atoms: _312  and  _315
REMARK  124  A    between atoms: _315  and  _316
REMARK  125  A    between atoms: _321  and  _322
REMARK  126  A    between atoms: _324  and  _326
REMARK  127  A    between atoms: _326  and  _327
REMARK  128  A    between atoms: _329  and  _331
REMARK  129  A    between atoms: _331  and  _332
REMARK  130  A    between atoms: _335  and  _337
REMARK  131  A    between atoms: _337  and  _338
REMARK  132  A    between atoms: _337  and  _340
REMARK  133  A    between atoms: _343  and  _345
REMARK  134  A    between atoms: _345  and  _346
REMARK  135  A    between atoms: _345  and  _348
REMARK  136  A    between atoms: _351  and  _353
REMARK  137  A    between atoms: _353  and  _354
REMARK  138  A    between atoms: _353  and  _356
REMARK  139  A    between atoms: _356  and  _357
REMARK  140  A    between atoms: _362  and  _364
REMARK  141  A    between atoms: _364  and  _365
REMARK  142  A    between atoms: _364  and  _367
REMARK  143  A    between atoms: _367  and  _368
REMARK  144  A    between atoms: _378  and  _380
REMARK  145  A    between atoms: _380  and  _381
REMARK  146  A    between atoms: _380  and  _383
REMARK  147  A    between atoms: _383  and  _384
REMARK                            x       y       z     vdW  Elec       q    Type
REMARK                         _______ _______ _______ _____ _____    ______ ____
ROOT
ATOM      1  O   HOH     1     -21.527 -45.147  25.294  0.00  0.00    +0.000 OA
ENDROOT
TORSDOF 0
REMARK  Name = ../refined-set-2016/4m0e/4m0e_pocket.pdb
REMARK  147 active torsions:
REMARK  status: ('A' for Active; 'I' for Inactive)
REMARK    1  A    between atoms: _1  and  _3
REMARK    2  A    between atoms: _3  and  _4
REMARK    3  A    between atoms: _3  and  _6
REMARK    4  A    between atoms: _6  and  _7
REMARK    5  A    between atoms: _12  and  _13
REMARK    6  A    between atoms: _15  and  _17
REMARK    7  A    between atoms: _17  and  _18
REMARK    8  A    between atoms: _17  and  _20
REMARK    9  A    between atoms: _23  and  _25
REMARK   10  A    between atoms: _25  and  _26
REMARK   11  A    between atoms: _25  and  _28
REMARK   12  A    between atoms: _28  and  _29
REMARK   13  A    between atoms: _32  and  _34
REMARK   14  A    between atoms: _34  and  _35
REMARK   15  A    between atoms: _34  and  _37
REMARK   16  A    between atoms: _37  and  _38
REMARK   17  A    between atoms: _41  and  _43
REMARK   18  A    between atoms: _43  and  _44
REMARK   19  A    between atoms: _43  and  _46
REMARK   20  A    between atoms: _46  and  _47
REMARK   21  A    between atoms: _50  and  _52
REMARK   22  A    between atoms: _52  and  _53
REMARK   23  A    between atoms: _52  and  _55
REMARK   24  A    between atoms: _55  and  _56
REMARK   25  A    between atoms: _59  and  _61
REMARK   26  A    between atoms: _61  and  _62
REMARK   27  A    between atoms: _61  and  _64
REMARK   28  A    between atoms: _64  and  _65
REMARK   29  A    between atoms: _75  and  _77
REMARK   30  A    between atoms: _77  and  _78
REMARK   31  A    between atoms: _80  and  _82
REMARK   32  A    between atoms: _82  and  _83
REMARK   33  A    between atoms: _85  and  _87
REMARK   34  A    between atoms: _87  and  _88
REMARK   35  A    between atoms: _87  and  _90
REMARK   36  A    between atoms: _90  and  _91
REMARK   37  A    between atoms: _96  and  _97
REMARK   38  A    between atoms: _99  and  _101
REMARK   39  A    between atoms: _101  and  _102
REMARK   40  A    between atoms: _101  and  _104
REMARK   41  A    between atoms: _104  and  _105
REMARK   42  A    between atoms: _107  and  _109
REMARK   43  A    between atoms: _109  and  _110
REMARK   44  A    between atoms: _109  and  _112
REMARK   45  A    between atoms: _112  and  _113
REMARK   46  A    between atoms: _115  and  _117
REMARK   47  A    between atoms: _117  and  _118
REMARK   48  A    between atoms: _117  and  _120
REMARK   49  A    between atoms: _123  and  _125
REMARK   50  A    between atoms: _125  and  _126
REMARK   51  A    between atoms: _125  and  _128
REMARK   52  A    between atoms: _128  and  _129
REMARK   53  A    between atoms: _134  and  _136
REMARK   54  A    between atoms: _136  and  _137
REMARK   55  A    between atoms: _136  and  _139
REMARK   56  A    between atoms: _139  and  _140
REMARK   57  A    between atoms: _140  and  _141
REMARK   58  A    between atoms: _144  and  _146
REMARK   59  A    between atoms: _146  and  _147
REMARK   60  A    between atoms: _146  and  _149
REMARK   61  A    between atoms: _149  and  _150
REMARK   62  A    between atoms: _160  and  _162
REMARK   63  A    between atoms: _162  and  _163
REMARK   64  A    between atoms: _162  and  _165
REMARK   65  A    between atoms: _165  and  _166
REMARK   66  A    between atoms: _171  and  _173
REMARK   67  A    between atoms: _173  and  _174
REMARK   68  A    between atoms: _173  and  _176
REMARK   69  A    between atoms: _176  and  _177
REMARK   70  A    between atoms: _180  and  _182
REMARK   71  A    between atoms: _182  and  _183
REMARK   72  A    between atoms: _182  and  _185
REMARK   73  A    between atoms: _185  and  _186
REMARK   74  A    between atoms: _186  and  _187
REMARK   75  A    between atoms: _192  and  _194
REMARK   76  A    between atoms: _194  and  _195
REMARK   77  A    between atoms: _194  and  _197
REMARK   78  A    between atoms: _197  and  _198
REMARK   79  A    between atoms: _198  and  _199
REMARK   80  A    between atoms: _202  and  _204
REMARK   81  A    between atoms: _204  and  _205
REMARK   82  A    between atoms: _204  and  _207
REMARK   83  A    between atoms: _207  and  _208
REMARK   84  A    between atoms: _210  and  _212
REMARK   85  A    between atoms: _212  and  _213
REMARK   86  A    between atoms: _212  and  _215
REMARK   87  A    between atoms: _218  and  _220
REMARK   88  A    between atoms: _220  and  _221
REMARK   89  A    between atoms: _220  and  _223
REMARK   90  A    between atoms: _223  and  _224
REMARK   91  A    between atoms: _230  and  _232
REMARK   92  A    between atoms: _232  and  _233
REMARK   93  A    between atoms: _232  and  _235
REMARK   94  A    between atoms: _235  and  _236
REMARK   95  A    between atoms: _236  and  _237
REMARK   96  A    between atoms: _237  and  _238
REMARK   97  A    between atoms: _247  and  _249
REMARK   98  A    between atoms: _249  and  _250
REMARK   99  A    between atoms: _249  and  _252
REMARK  100  A    between atoms: _252  and  _253
REMARK  101  A    between atoms: _259  and  _261
REMARK  102  A    between atoms: _261  and  _262
REMARK  103  A    between atoms: _261  and  _264
REMARK  104  A    between atoms: _264  and  _265
REMARK  105  A    between atoms: _267  and  _269
REMARK  106  A    between atoms: _269  and  _270
REMARK  107  A    between atoms: _269  and  _272
REMARK  108  A    between atoms: _272  and  _273
REMARK  109  A    between atoms: _278  and  _279
REMARK  110  A    between atoms: _281  and  _283
REMARK  111  A    between atoms: _283  and  _284
REMARK  112  A    between atoms: _283  and  _286
REMARK  113  A    between atoms: _286  and  _287
REMARK  114  A    between atoms: _293  and  _295
REMARK  115  A    between atoms: _295  and  _296
REMARK  116  A    between atoms: _295  and  _298
REMARK  117  A    between atoms: _298  and  _299
REMARK  118  A    between atoms: _302  and  _304
REMARK  119  A    between atoms: _304  and  _305
REMARK  120  A    between atoms: _304  and  _307
REMARK  121  A    between atoms: _310  and  _312
REMARK  122  A    between atoms: _312  and  _313
REMARK  123  A    between atoms: _312  and  _315
REMARK  124  A    between atoms: _315  and  _316
REMARK  125  A    between atoms: _321  and  _322
REMARK  126  A    between atoms: _324  and  _326
REMARK  127  A    between atoms: _326  and  _327
REMARK  128  A    between atoms: _329  and  _331
REMARK  129  A    between atoms: _331  and  _332
REMARK  130  A    between atoms: _335  and  _337
REMARK  131  A    between atoms: _337  and  _338
REMARK  132  A    between atoms: _337  and  _340
REMARK  133  A    between atoms: _343  and  _345
REMARK  134  A    between atoms: _345  and  _346
REMARK  135  A    between atoms: _345  and  _348
REMARK  136  A    between atoms: _351  and  _353
REMARK  137  A    between atoms: _353  and  _354
REMARK  138  A    between atoms: _353  and  _356
REMARK  139  A    between atoms: _356  and  _357
REMARK  140  A    between atoms: _362  and  _364
REMARK  141  A    between atoms: _364  and  _365
REMARK  142  A    between atoms: _364  and  _367
REMARK  143  A    between atoms: _367  and  _368
REMARK  144  A    between atoms: _378  and  _380
REMARK  145  A    between atoms: _380  and  _381
REMARK  146  A    between atoms: _380  and  _383
REMARK  147  A    between atoms: _383  and  _384
REMARK                            x       y       z     vdW  Elec       q    Type
REMARK                         _______ _______ _______ _____ _____    ______ ____
ROOT
ATOM      1  O   HOH     1     -21.737 -48.081  23.989  0.00  0.00    +0.000 OA
ENDROOT
TORSDOF 0
REMARK  Name = ../refined-set-2016/4m0e/4m0e_pocket.pdb
REMARK  147 active torsions:
REMARK  status: ('A' for Active; 'I' for Inactive)
REMARK    1  A    between atoms: _1  and  _3
REMARK    2  A    between atoms: _3  and  _4
REMARK    3  A    between atoms: _3  and  _6
REMARK    4  A    between atoms: _6  and  _7
REMARK    5  A    between atoms: _12  and  _13
REMARK    6  A    between atoms: _15  and  _17
REMARK    7  A    between atoms: _17  and  _18
REMARK    8  A    between atoms: _17  and  _20
REMARK    9  A    between atoms: _23  and  _25
REMARK   10  A    between atoms: _25  and  _26
REMARK   11  A    between atoms: _25  and  _28
REMARK   12  A    between atoms: _28  and  _29
REMARK   13  A    between atoms: _32  and  _34
REMARK   14  A    between atoms: _34  and  _35
REMARK   15  A    between atoms: _34  and  _37
REMARK   16  A    between atoms: _37  and  _38
REMARK   17  A    between atoms: _41  and  _43
REMARK   18  A    between atoms: _43  and  _44
REMARK   19  A    between atoms: _43  and  _46
REMARK   20  A    between atoms: _46  and  _47
REMARK   21  A    between atoms: _50  and  _52
REMARK   22  A    between atoms: _52  and  _53
REMARK   23  A    between atoms: _52  and  _55
REMARK   24  A    between atoms: _55  and  _56
REMARK   25  A    between atoms: _59  and  _61
REMARK   26  A    between atoms: _61  and  _62
REMARK   27  A    between atoms: _61  and  _64
REMARK   28  A    between atoms: _64  and  _65
REMARK   29  A    between atoms: _75  and  _77
REMARK   30  A    between atoms: _77  and  _78
REMARK   31  A    between atoms: _80  and  _82
REMARK   32  A    between atoms: _82  and  _83
REMARK   33  A    between atoms: _85  and  _87
REMARK   34  A    between atoms: _87  and  _88
REMARK   35  A    between atoms: _87  and  _90
REMARK   36  A    between atoms: _90  and  _91
REMARK   37  A    between atoms: _96  and  _97
REMARK   38  A    between atoms: _99  and  _101
REMARK   39  A    between atoms: _101  and  _102
REMARK   40  A    between atoms: _101  and  _104
REMARK   41  A    between atoms: _104  and  _105
REMARK   42  A    between atoms: _107  and  _109
REMARK   43  A    between atoms: _109  and  _110
REMARK   44  A    between atoms: _109  and  _112
REMARK   45  A    between atoms: _112  and  _113
REMARK   46  A    between atoms: _115  and  _117
REMARK   47  A    between atoms: _117  and  _118
REMARK   48  A    between atoms: _117  and  _120
REMARK   49  A    between atoms: _123  and  _125
REMARK   50  A    between atoms: _125  and  _126
REMARK   51  A    between atoms: _125  and  _128
REMARK   52  A    between atoms: _128  and  _129
REMARK   53  A    between atoms: _134  and  _136
REMARK   54  A    between atoms: _136  and  _137
REMARK   55  A    between atoms: _136  and  _139
REMARK   56  A    between atoms: _139  and  _140
REMARK   57  A    between atoms: _140  and  _141
REMARK   58  A    between atoms: _144  and  _146
REMARK   59  A    between atoms: _146  and  _147
REMARK   60  A    between atoms: _146  and  _149
REMARK   61  A    between atoms: _149  and  _150
REMARK   62  A    between atoms: _160  and  _162
REMARK   63  A    between atoms: _162  and  _163
REMARK   64  A    between atoms: _162  and  _165
REMARK   65  A    between atoms: _165  and  _166
REMARK   66  A    between atoms: _171  and  _173
REMARK   67  A    between atoms: _173  and  _174
REMARK   68  A    between atoms: _173  and  _176
REMARK   69  A    between atoms: _176  and  _177
REMARK   70  A    between atoms: _180  and  _182
REMARK   71  A    between atoms: _182  and  _183
REMARK   72  A    between atoms: _182  and  _185
REMARK   73  A    between atoms: _185  and  _186
REMARK   74  A    between atoms: _186  and  _187
REMARK   75  A    between atoms: _192  and  _194
REMARK   76  A    between atoms: _194  and  _195
REMARK   77  A    between atoms: _194  and  _197
REMARK   78  A    between atoms: _197  and  _198
REMARK   79  A    between atoms: _198  and  _199
REMARK   80  A    between atoms: _202  and  _204
REMARK   81  A    between atoms: _204  and  _205
REMARK   82  A    between atoms: _204  and  _207
REMARK   83  A    between atoms: _207  and  _208
REMARK   84  A    between atoms: _210  and  _212
REMARK   85  A    between atoms: _212  and  _213
REMARK   86  A    between atoms: _212  and  _215
REMARK   87  A    between atoms: _218  and  _220
REMARK   88  A    between atoms: _220  and  _221
REMARK   89  A    between atoms: _220  and  _223
REMARK   90  A    between atoms: _223  and  _224
REMARK   91  A    between atoms: _230  and  _232
REMARK   92  A    between atoms: _232  and  _233
REMARK   93  A    between atoms: _232  and  _235
REMARK   94  A    between atoms: _235  and  _236
REMARK   95  A    between atoms: _236  and  _237
REMARK   96  A    between atoms: _237  and  _238
REMARK   97  A    between atoms: _247  and  _249
REMARK   98  A    between atoms: _249  and  _250
REMARK   99  A    between atoms: _249  and  _252
REMARK  100  A    between atoms: _252  and  _253
REMARK  101  A    between atoms: _259  and  _261
REMARK  102  A    between atoms: _261  and  _262
REMARK  103  A    between atoms: _261  and  _264
REMARK  104  A    between atoms: _264  and  _265
REMARK  105  A    between atoms: _267  and  _269
REMARK  106  A    between atoms: _269  and  _270
REMARK  107  A    between atoms: _269  and  _272
REMARK  108  A    between atoms: _272  and  _273
REMARK  109  A    between atoms: _278  and  _279
REMARK  110  A    between atoms: _281  and  _283
REMARK  111  A    between atoms: _283  and  _284
REMARK  112  A    between atoms: _283  and  _286
REMARK  113  A    between atoms: _286  and  _287
REMARK  114  A    between atoms: _293  and  _295
REMARK  115  A    between atoms: _295  and  _296
REMARK  116  A    between atoms: _295  and  _298
REMARK  117  A    between atoms: _298  and  _299
REMARK  118  A    between atoms: _302  and  _304
REMARK  119  A    between atoms: _304  and  _305
REMARK  120  A    between atoms: _304  and  _307
REMARK  121  A    between atoms: _310  and  _312
REMARK  122  A    between atoms: _312  and  _313
REMARK  123  A    between atoms: _312  and  _315
REMARK  124  A    between atoms: _315  and  _316
REMARK  125  A    between atoms: _321  and  _322
REMARK  126  A    between atoms: _324  and  _326
REMARK  127  A    between atoms: _326  and  _327
REMARK  128  A    between atoms: _329  and  _331
REMARK  129  A    between atoms: _331  and  _332
REMARK  130  A    between atoms: _335  and  _337
REMARK  131  A    between atoms: _337  and  _338
REMARK  132  A    between atoms: _337  and  _340
REMARK  133  A    between atoms: _343  and  _345
REMARK  134  A    between atoms: _345  and  _346
REMARK  135  A    between atoms: _345  and  _348
REMARK  136  A    between atoms: _351  and  _353
REMARK  137  A    between atoms: _353  and  _354
REMARK  138  A    between atoms: _353  and  _356
REMARK  139  A    between atoms: _356  and  _357
REMARK  140  A    between atoms: _362  and  _364
REMARK  141  A    between atoms: _364  and  _365
REMARK  142  A    between atoms: _364  and  _367
REMARK  143  A    between atoms: _367  and  _368
REMARK  144  A    between atoms: _378  and  _380
REMARK  145  A    between atoms: _380  and  _381
REMARK  146  A    between atoms: _380  and  _383
REMARK  147  A    between atoms: _383  and  _384
REMARK                            x       y       z     vdW  Elec       q    Type
REMARK                         _______ _______ _______ _____ _____    ______ ____
ROOT
ATOM      1  O   HOH     1     -22.443 -36.475  18.013  0.00  0.00    +0.000 OA
ENDROOT
TORSDOF 0
REMARK  Name = ../refined-set-2016/4m0e/4m0e_pocket.pdb
REMARK  147 active torsions:
REMARK  status: ('A' for Active; 'I' for Inactive)
REMARK    1  A    between atoms: _1  and  _3
REMARK    2  A    between atoms: _3  and  _4
REMARK    3  A    between atoms: _3  and  _6
REMARK    4  A    between atoms: _6  and  _7
REMARK    5  A    between atoms: _12  and  _13
REMARK    6  A    between atoms: _15  and  _17
REMARK    7  A    between atoms: _17  and  _18
REMARK    8  A    between atoms: _17  and  _20
REMARK    9  A    between atoms: _23  and  _25
REMARK   10  A    between atoms: _25  and  _26
REMARK   11  A    between atoms: _25  and  _28
REMARK   12  A    between atoms: _28  and  _29
REMARK   13  A    between atoms: _32  and  _34
REMARK   14  A    between atoms: _34  and  _35
REMARK   15  A    between atoms: _34  and  _37
REMARK   16  A    between atoms: _37  and  _38
REMARK   17  A    between atoms: _41  and  _43
REMARK   18  A    between atoms: _43  and  _44
REMARK   19  A    between atoms: _43  and  _46
REMARK   20  A    between atoms: _46  and  _47
REMARK   21  A    between atoms: _50  and  _52
REMARK   22  A    between atoms: _52  and  _53
REMARK   23  A    between atoms: _52  and  _55
REMARK   24  A    between atoms: _55  and  _56
REMARK   25  A    between atoms: _59  and  _61
REMARK   26  A    between atoms: _61  and  _62
REMARK   27  A    between atoms: _61  and  _64
REMARK   28  A    between atoms: _64  and  _65
REMARK   29  A    between atoms: _75  and  _77
REMARK   30  A    between atoms: _77  and  _78
REMARK   31  A    between atoms: _80  and  _82
REMARK   32  A    between atoms: _82  and  _83
REMARK   33  A    between atoms: _85  and  _87
REMARK   34  A    between atoms: _87  and  _88
REMARK   35  A    between atoms: _87  and  _90
REMARK   36  A    between atoms: _90  and  _91
REMARK   37  A    between atoms: _96  and  _97
REMARK   38  A    between atoms: _99  and  _101
REMARK   39  A    between atoms: _101  and  _102
REMARK   40  A    between atoms: _101  and  _104
REMARK   41  A    between atoms: _104  and  _105
REMARK   42  A    between atoms: _107  and  _109
REMARK   43  A    between atoms: _109  and  _110
REMARK   44  A    between atoms: _109  and  _112
REMARK   45  A    between atoms: _112  and  _113
REMARK   46  A    between atoms: _115  and  _117
REMARK   47  A    between atoms: _117  and  _118
REMARK   48  A    between atoms: _117  and  _120
REMARK   49  A    between atoms: _123  and  _125
REMARK   50  A    between atoms: _125  and  _126
REMARK   51  A    between atoms: _125  and  _128
REMARK   52  A    between atoms: _128  and  _129
REMARK   53  A    between atoms: _134  and  _136
REMARK   54  A    between atoms: _136  and  _137
REMARK   55  A    between atoms: _136  and  _139
REMARK   56  A    between atoms: _139  and  _140
REMARK   57  A    between atoms: _140  and  _141
REMARK   58  A    between atoms: _144  and  _146
REMARK   59  A    between atoms: _146  and  _147
REMARK   60  A    between atoms: _146  and  _149
REMARK   61  A    between atoms: _149  and  _150
REMARK   62  A    between atoms: _160  and  _162
REMARK   63  A    between atoms: _162  and  _163
REMARK   64  A    between atoms: _162  and  _165
REMARK   65  A    between atoms: _165  and  _166
REMARK   66  A    between atoms: _171  and  _173
REMARK   67  A    between atoms: _173  and  _174
REMARK   68  A    between atoms: _173  and  _176
REMARK   69  A    between atoms: _176  and  _177
REMARK   70  A    between atoms: _180  and  _182
REMARK   71  A    between atoms: _182  and  _183
REMARK   72  A    between atoms: _182  and  _185
REMARK   73  A    between atoms: _185  and  _186
REMARK   74  A    between atoms: _186  and  _187
REMARK   75  A    between atoms: _192  and  _194
REMARK   76  A    between atoms: _194  and  _195
REMARK   77  A    between atoms: _194  and  _197
REMARK   78  A    between atoms: _197  and  _198
REMARK   79  A    between atoms: _198  and  _199
REMARK   80  A    between atoms: _202  and  _204
REMARK   81  A    between atoms: _204  and  _205
REMARK   82  A    between atoms: _204  and  _207
REMARK   83  A    between atoms: _207  and  _208
REMARK   84  A    between atoms: _210  and  _212
REMARK   85  A    between atoms: _212  and  _213
REMARK   86  A    between atoms: _212  and  _215
REMARK   87  A    between atoms: _218  and  _220
REMARK   88  A    between atoms: _220  and  _221
REMARK   89  A    between atoms: _220  and  _223
REMARK   90  A    between atoms: _223  and  _224
REMARK   91  A    between atoms: _230  and  _232
REMARK   92  A    between atoms: _232  and  _233
REMARK   93  A    between atoms: _232  and  _235
REMARK   94  A    between atoms: _235  and  _236
REMARK   95  A    between atoms: _236  and  _237
REMARK   96  A    between atoms: _237  and  _238
REMARK   97  A    between atoms: _247  and  _249
REMARK   98  A    between atoms: _249  and  _250
REMARK   99  A    between atoms: _249  and  _252
REMARK  100  A    between atoms: _252  and  _253
REMARK  101  A    between atoms: _259  and  _261
REMARK  102  A    between atoms: _261  and  _262
REMARK  103  A    between atoms: _261  and  _264
REMARK  104  A    between atoms: _264  and  _265
REMARK  105  A    between atoms: _267  and  _269
REMARK  106  A    between atoms: _269  and  _270
REMARK  107  A    between atoms: _269  and  _272
REMARK  108  A    between atoms: _272  and  _273
REMARK  109  A    between atoms: _278  and  _279
REMARK  110  A    between atoms: _281  and  _283
REMARK  111  A    between atoms: _283  and  _284
REMARK  112  A    between atoms: _283  and  _286
REMARK  113  A    between atoms: _286  and  _287
REMARK  114  A    between atoms: _293  and  _295
REMARK  115  A    between atoms: _295  and  _296
REMARK  116  A    between atoms: _295  and  _298
REMARK  117  A    between atoms: _298  and  _299
REMARK  118  A    between atoms: _302  and  _304
REMARK  119  A    between atoms: _304  and  _305
REMARK  120  A    between atoms: _304  and  _307
REMARK  121  A    between atoms: _310  and  _312
REMARK  122  A    between atoms: _312  and  _313
REMARK  123  A    between atoms: _312  and  _315
REMARK  124  A    between atoms: _315  and  _316
REMARK  125  A    between atoms: _321  and  _322
REMARK  126  A    between atoms: _324  and  _326
REMARK  127  A    between atoms: _326  and  _327
REMARK  128  A    between atoms: _329  and  _331
REMARK  129  A    between atoms: _331  and  _332
REMARK  130  A    between atoms: _335  and  _337
REMARK  131  A    between atoms: _337  and  _338
REMARK  132  A    between atoms: _337  and  _340
REMARK  133  A    between atoms: _343  and  _345
REMARK  134  A    between atoms: _345  and  _346
REMARK  135  A    between atoms: _345  and  _348
REMARK  136  A    between atoms: _351  and  _353
REMARK  137  A    between atoms: _353  and  _354
REMARK  138  A    between atoms: _353  and  _356
REMARK  139  A    between atoms: _356  and  _357
REMARK  140  A    between atoms: _362  and  _364
REMARK  141  A    between atoms: _364  and  _365
REMARK  142  A    between atoms: _364  and  _367
REMARK  143  A    between atoms: _367  and  _368
REMARK  144  A    between atoms: _378  and  _380
REMARK  145  A    between atoms: _380  and  _381
REMARK  146  A    between atoms: _380  and  _383
REMARK  147  A    between atoms: _383  and  _384
REMARK                            x       y       z     vdW  Elec       q    Type
REMARK                         _______ _______ _______ _____ _____    ______ ____
ROOT
ATOM      1  O   HOH     1     -22.951 -35.000  27.421  0.00  0.00    +0.000 OA
ENDROOT
TORSDOF 0
REMARK  Name = ../refined-set-2016/4m0e/4m0e_pocket.pdb
REMARK  147 active torsions:
REMARK  status: ('A' for Active; 'I' for Inactive)
REMARK    1  A    between atoms: _1  and  _3
REMARK    2  A    between atoms: _3  and  _4
REMARK    3  A    between atoms: _3  and  _6
REMARK    4  A    between atoms: _6  and  _7
REMARK    5  A    between atoms: _12  and  _13
REMARK    6  A    between atoms: _15  and  _17
REMARK    7  A    between atoms: _17  and  _18
REMARK    8  A    between atoms: _17  and  _20
REMARK    9  A    between atoms: _23  and  _25
REMARK   10  A    between atoms: _25  and  _26
REMARK   11  A    between atoms: _25  and  _28
REMARK   12  A    between atoms: _28  and  _29
REMARK   13  A    between atoms: _32  and  _34
REMARK   14  A    between atoms: _34  and  _35
REMARK   15  A    between atoms: _34  and  _37
REMARK   16  A    between atoms: _37  and  _38
REMARK   17  A    between atoms: _41  and  _43
REMARK   18  A    between atoms: _43  and  _44
REMARK   19  A    between atoms: _43  and  _46
REMARK   20  A    between atoms: _46  and  _47
REMARK   21  A    between atoms: _50  and  _52
REMARK   22  A    between atoms: _52  and  _53
REMARK   23  A    between atoms: _52  and  _55
REMARK   24  A    between atoms: _55  and  _56
REMARK   25  A    between atoms: _59  and  _61
REMARK   26  A    between atoms: _61  and  _62
REMARK   27  A    between atoms: _61  and  _64
REMARK   28  A    between atoms: _64  and  _65
REMARK   29  A    between atoms: _75  and  _77
REMARK   30  A    between atoms: _77  and  _78
REMARK   31  A    between atoms: _80  and  _82
REMARK   32  A    between atoms: _82  and  _83
REMARK   33  A    between atoms: _85  and  _87
REMARK   34  A    between atoms: _87  and  _88
REMARK   35  A    between atoms: _87  and  _90
REMARK   36  A    between atoms: _90  and  _91
REMARK   37  A    between atoms: _96  and  _97
REMARK   38  A    between atoms: _99  and  _101
REMARK   39  A    between atoms: _101  and  _102
REMARK   40  A    between atoms: _101  and  _104
REMARK   41  A    between atoms: _104  and  _105
REMARK   42  A    between atoms: _107  and  _109
REMARK   43  A    between atoms: _109  and  _110
REMARK   44  A    between atoms: _109  and  _112
REMARK   45  A    between atoms: _112  and  _113
REMARK   46  A    between atoms: _115  and  _117
REMARK   47  A    between atoms: _117  and  _118
REMARK   48  A    between atoms: _117  and  _120
REMARK   49  A    between atoms: _123  and  _125
REMARK   50  A    between atoms: _125  and  _126
REMARK   51  A    between atoms: _125  and  _128
REMARK   52  A    between atoms: _128  and  _129
REMARK   53  A    between atoms: _134  and  _136
REMARK   54  A    between atoms: _136  and  _137
REMARK   55  A    between atoms: _136  and  _139
REMARK   56  A    between atoms: _139  and  _140
REMARK   57  A    between atoms: _140  and  _141
REMARK   58  A    between atoms: _144  and  _146
REMARK   59  A    between atoms: _146  and  _147
REMARK   60  A    between atoms: _146  and  _149
REMARK   61  A    between atoms: _149  and  _150
REMARK   62  A    between atoms: _160  and  _162
REMARK   63  A    between atoms: _162  and  _163
REMARK   64  A    between atoms: _162  and  _165
REMARK   65  A    between atoms: _165  and  _166
REMARK   66  A    between atoms: _171  and  _173
REMARK   67  A    between atoms: _173  and  _174
REMARK   68  A    between atoms: _173  and  _176
REMARK   69  A    between atoms: _176  and  _177
REMARK   70  A    between atoms: _180  and  _182
REMARK   71  A    between atoms: _182  and  _183
REMARK   72  A    between atoms: _182  and  _185
REMARK   73  A    between atoms: _185  and  _186
REMARK   74  A    between atoms: _186  and  _187
REMARK   75  A    between atoms: _192  and  _194
REMARK   76  A    between atoms: _194  and  _195
REMARK   77  A    between atoms: _194  and  _197
REMARK   78  A    between atoms: _197  and  _198
REMARK   79  A    between atoms: _198  and  _199
REMARK   80  A    between atoms: _202  and  _204
REMARK   81  A    between atoms: _204  and  _205
REMARK   82  A    between atoms: _204  and  _207
REMARK   83  A    between atoms: _207  and  _208
REMARK   84  A    between atoms: _210  and  _212
REMARK   85  A    between atoms: _212  and  _213
REMARK   86  A    between atoms: _212  and  _215
REMARK   87  A    between atoms: _218  and  _220
REMARK   88  A    between atoms: _220  and  _221
REMARK   89  A    between atoms: _220  and  _223
REMARK   90  A    between atoms: _223  and  _224
REMARK   91  A    between atoms: _230  and  _232
REMARK   92  A    between atoms: _232  and  _233
REMARK   93  A    between atoms: _232  and  _235
REMARK   94  A    between atoms: _235  and  _236
REMARK   95  A    between atoms: _236  and  _237
REMARK   96  A    between atoms: _237  and  _238
REMARK   97  A    between atoms: _247  and  _249
REMARK   98  A    between atoms: _249  and  _250
REMARK   99  A    between atoms: _249  and  _252
REMARK  100  A    between atoms: _252  and  _253
REMARK  101  A    between atoms: _259  and  _261
REMARK  102  A    between atoms: _261  and  _262
REMARK  103  A    between atoms: _261  and  _264
REMARK  104  A    between atoms: _264  and  _265
REMARK  105  A    between atoms: _267  and  _269
REMARK  106  A    between atoms: _269  and  _270
REMARK  107  A    between atoms: _269  and  _272
REMARK  108  A    between atoms: _272  and  _273
REMARK  109  A    between atoms: _278  and  _279
REMARK  110  A    between atoms: _281  and  _283
REMARK  111  A    between atoms: _283  and  _284
REMARK  112  A    between atoms: _283  and  _286
REMARK  113  A    between atoms: _286  and  _287
REMARK  114  A    between atoms: _293  and  _295
REMARK  115  A    between atoms: _295  and  _296
REMARK  116  A    between atoms: _295  and  _298
REMARK  117  A    between atoms: _298  and  _299
REMARK  118  A    between atoms: _302  and  _304
REMARK  119  A    between atoms: _304  and  _305
REMARK  120  A    between atoms: _304  and  _307
REMARK  121  A    between atoms: _310  and  _312
REMARK  122  A    between atoms: _312  and  _313
REMARK  123  A    between atoms: _312  and  _315
REMARK  124  A    between atoms: _315  and  _316
REMARK  125  A    between atoms: _321  and  _322
REMARK  126  A    between atoms: _324  and  _326
REMARK  127  A    between atoms: _326  and  _327
REMARK  128  A    between atoms: _329  and  _331
REMARK  129  A    between atoms: _331  and  _332
REMARK  130  A    between atoms: _335  and  _337
REMARK  131  A    between atoms: _337  and  _338
REMARK  132  A    between atoms: _337  and  _340
REMARK  133  A    between atoms: _343  and  _345
REMARK  134  A    between atoms: _345  and  _346
REMARK  135  A    between atoms: _345  and  _348
REMARK  136  A    between atoms: _351  and  _353
REMARK  137  A    between atoms: _353  and  _354
REMARK  138  A    between atoms: _353  and  _356
REMARK  139  A    between atoms: _356  and  _357
REMARK  140  A    between atoms: _362  and  _364
REMARK  141  A    between atoms: _364  and  _365
REMARK  142  A    between atoms: _364  and  _367
REMARK  143  A    between atoms: _367  and  _368
REMARK  144  A    between atoms: _378  and  _380
REMARK  145  A    between atoms: _380  and  _381
REMARK  146  A    between atoms: _380  and  _383
REMARK  147  A    between atoms: _383  and  _384
REMARK                            x       y       z     vdW  Elec       q    Type
REMARK                         _______ _______ _______ _____ _____    ______ ____
ROOT
ATOM      1  O   HOH     1     -24.155 -41.434  30.323  0.00  0.00    +0.000 OA
ENDROOT
TORSDOF 0
REMARK  Name = ../refined-set-2016/4m0e/4m0e_pocket.pdb
REMARK  147 active torsions:
REMARK  status: ('A' for Active; 'I' for Inactive)
REMARK    1  A    between atoms: _1  and  _3
REMARK    2  A    between atoms: _3  and  _4
REMARK    3  A    between atoms: _3  and  _6
REMARK    4  A    between atoms: _6  and  _7
REMARK    5  A    between atoms: _12  and  _13
REMARK    6  A    between atoms: _15  and  _17
REMARK    7  A    between atoms: _17  and  _18
REMARK    8  A    between atoms: _17  and  _20
REMARK    9  A    between atoms: _23  and  _25
REMARK   10  A    between atoms: _25  and  _26
REMARK   11  A    between atoms: _25  and  _28
REMARK   12  A    between atoms: _28  and  _29
REMARK   13  A    between atoms: _32  and  _34
REMARK   14  A    between atoms: _34  and  _35
REMARK   15  A    between atoms: _34  and  _37
REMARK   16  A    between atoms: _37  and  _38
REMARK   17  A    between atoms: _41  and  _43
REMARK   18  A    between atoms: _43  and  _44
REMARK   19  A    between atoms: _43  and  _46
REMARK   20  A    between atoms: _46  and  _47
REMARK   21  A    between atoms: _50  and  _52
REMARK   22  A    between atoms: _52  and  _53
REMARK   23  A    between atoms: _52  and  _55
REMARK   24  A    between atoms: _55  and  _56
REMARK   25  A    between atoms: _59  and  _61
REMARK   26  A    between atoms: _61  and  _62
REMARK   27  A    between atoms: _61  and  _64
REMARK   28  A    between atoms: _64  and  _65
REMARK   29  A    between atoms: _75  and  _77
REMARK   30  A    between atoms: _77  and  _78
REMARK   31  A    between atoms: _80  and  _82
REMARK   32  A    between atoms: _82  and  _83
REMARK   33  A    between atoms: _85  and  _87
REMARK   34  A    between atoms: _87  and  _88
REMARK   35  A    between atoms: _87  and  _90
REMARK   36  A    between atoms: _90  and  _91
REMARK   37  A    between atoms: _96  and  _97
REMARK   38  A    between atoms: _99  and  _101
REMARK   39  A    between atoms: _101  and  _102
REMARK   40  A    between atoms: _101  and  _104
REMARK   41  A    between atoms: _104  and  _105
REMARK   42  A    between atoms: _107  and  _109
REMARK   43  A    between atoms: _109  and  _110
REMARK   44  A    between atoms: _109  and  _112
REMARK   45  A    between atoms: _112  and  _113
REMARK   46  A    between atoms: _115  and  _117
REMARK   47  A    between atoms: _117  and  _118
REMARK   48  A    between atoms: _117  and  _120
REMARK   49  A    between atoms: _123  and  _125
REMARK   50  A    between atoms: _125  and  _126
REMARK   51  A    between atoms: _125  and  _128
REMARK   52  A    between atoms: _128  and  _129
REMARK   53  A    between atoms: _134  and  _136
REMARK   54  A    between atoms: _136  and  _137
REMARK   55  A    between atoms: _136  and  _139
REMARK   56  A    between atoms: _139  and  _140
REMARK   57  A    between atoms: _140  and  _141
REMARK   58  A    between atoms: _144  and  _146
REMARK   59  A    between atoms: _146  and  _147
REMARK   60  A    between atoms: _146  and  _149
REMARK   61  A    between atoms: _149  and  _150
REMARK   62  A    between atoms: _160  and  _162
REMARK   63  A    between atoms: _162  and  _163
REMARK   64  A    between atoms: _162  and  _165
REMARK   65  A    between atoms: _165  and  _166
REMARK   66  A    between atoms: _171  and  _173
REMARK   67  A    between atoms: _173  and  _174
REMARK   68  A    between atoms: _173  and  _176
REMARK   69  A    between atoms: _176  and  _177
REMARK   70  A    between atoms: _180  and  _182
REMARK   71  A    between atoms: _182  and  _183
REMARK   72  A    between atoms: _182  and  _185
REMARK   73  A    between atoms: _185  and  _186
REMARK   74  A    between atoms: _186  and  _187
REMARK   75  A    between atoms: _192  and  _194
REMARK   76  A    between atoms: _194  and  _195
REMARK   77  A    between atoms: _194  and  _197
REMARK   78  A    between atoms: _197  and  _198
REMARK   79  A    between atoms: _198  and  _199
REMARK   80  A    between atoms: _202  and  _204
REMARK   81  A    between atoms: _204  and  _205
REMARK   82  A    between atoms: _204  and  _207
REMARK   83  A    between atoms: _207  and  _208
REMARK   84  A    between atoms: _210  and  _212
REMARK   85  A    between atoms: _212  and  _213
REMARK   86  A    between atoms: _212  and  _215
REMARK   87  A    between atoms: _218  and  _220
REMARK   88  A    between atoms: _220  and  _221
REMARK   89  A    between atoms: _220  and  _223
REMARK   90  A    between atoms: _223  and  _224
REMARK   91  A    between atoms: _230  and  _232
REMARK   92  A    between atoms: _232  and  _233
REMARK   93  A    between atoms: _232  and  _235
REMARK   94  A    between atoms: _235  and  _236
REMARK   95  A    between atoms: _236  and  _237
REMARK   96  A    between atoms: _237  and  _238
REMARK   97  A    between atoms: _247  and  _249
REMARK   98  A    between atoms: _249  and  _250
REMARK   99  A    between atoms: _249  and  _252
REMARK  100  A    between atoms: _252  and  _253
REMARK  101  A    between atoms: _259  and  _261
REMARK  102  A    between atoms: _261  and  _262
REMARK  103  A    between atoms: _261  and  _264
REMARK  104  A    between atoms: _264  and  _265
REMARK  105  A    between atoms: _267  and  _269
REMARK  106  A    between atoms: _269  and  _270
REMARK  107  A    between atoms: _269  and  _272
REMARK  108  A    between atoms: _272  and  _273
REMARK  109  A    between atoms: _278  and  _279
REMARK  110  A    between atoms: _281  and  _283
REMARK  111  A    between atoms: _283  and  _284
REMARK  112  A    between atoms: _283  and  _286
REMARK  113  A    between atoms: _286  and  _287
REMARK  114  A    between atoms: _293  and  _295
REMARK  115  A    between atoms: _295  and  _296
REMARK  116  A    between atoms: _295  and  _298
REMARK  117  A    between atoms: _298  and  _299
REMARK  118  A    between atoms: _302  and  _304
REMARK  119  A    between atoms: _304  and  _305
REMARK  120  A    between atoms: _304  and  _307
REMARK  121  A    between atoms: _310  and  _312
REMARK  122  A    between atoms: _312  and  _313
REMARK  123  A    between atoms: _312  and  _315
REMARK  124  A    between atoms: _315  and  _316
REMARK  125  A    between atoms: _321  and  _322
REMARK  126  A    between atoms: _324  and  _326
REMARK  127  A    between atoms: _326  and  _327
REMARK  128  A    between atoms: _329  and  _331
REMARK  129  A    between atoms: _331  and  _332
REMARK  130  A    between atoms: _335  and  _337
REMARK  131  A    between atoms: _337  and  _338
REMARK  132  A    between atoms: _337  and  _340
REMARK  133  A    between atoms: _343  and  _345
REMARK  134  A    between atoms: _345  and  _346
REMARK  135  A    between atoms: _345  and  _348
REMARK  136  A    between atoms: _351  and  _353
REMARK  137  A    between atoms: _353  and  _354
REMARK  138  A    between atoms: _353  and  _356
REMARK  139  A    between atoms: _356  and  _357
REMARK  140  A    between atoms: _362  and  _364
REMARK  141  A    between atoms: _364  and  _365
REMARK  142  A    between atoms: _364  and  _367
REMARK  143  A    between atoms: _367  and  _368
REMARK  144  A    between atoms: _378  and  _380
REMARK  145  A    between atoms: _380  and  _381
REMARK  146  A    between atoms: _380  and  _383
REMARK  147  A    between atoms: _383  and  _384
REMARK                            x       y       z     vdW  Elec       q    Type
REMARK                         _______ _______ _______ _____ _____    ______ ____
ROOT
ATOM      1  O   HOH     1     -23.880 -36.089  32.511  0.00  0.00    +0.000 OA
ENDROOT
TORSDOF 0
REMARK  Name = ../refined-set-2016/4m0e/4m0e_pocket.pdb
REMARK  147 active torsions:
REMARK  status: ('A' for Active; 'I' for Inactive)
REMARK    1  A    between atoms: _1  and  _3
REMARK    2  A    between atoms: _3  and  _4
REMARK    3  A    between atoms: _3  and  _6
REMARK    4  A    between atoms: _6  and  _7
REMARK    5  A    between atoms: _12  and  _13
REMARK    6  A    between atoms: _15  and  _17
REMARK    7  A    between atoms: _17  and  _18
REMARK    8  A    between atoms: _17  and  _20
REMARK    9  A    between atoms: _23  and  _25
REMARK   10  A    between atoms: _25  and  _26
REMARK   11  A    between atoms: _25  and  _28
REMARK   12  A    between atoms: _28  and  _29
REMARK   13  A    between atoms: _32  and  _34
REMARK   14  A    between atoms: _34  and  _35
REMARK   15  A    between atoms: _34  and  _37
REMARK   16  A    between atoms: _37  and  _38
REMARK   17  A    between atoms: _41  and  _43
REMARK   18  A    between atoms: _43  and  _44
REMARK   19  A    between atoms: _43  and  _46
REMARK   20  A    between atoms: _46  and  _47
REMARK   21  A    between atoms: _50  and  _52
REMARK   22  A    between atoms: _52  and  _53
REMARK   23  A    between atoms: _52  and  _55
REMARK   24  A    between atoms: _55  and  _56
REMARK   25  A    between atoms: _59  and  _61
REMARK   26  A    between atoms: _61  and  _62
REMARK   27  A    between atoms: _61  and  _64
REMARK   28  A    between atoms: _64  and  _65
REMARK   29  A    between atoms: _75  and  _77
REMARK   30  A    between atoms: _77  and  _78
REMARK   31  A    between atoms: _80  and  _82
REMARK   32  A    between atoms: _82  and  _83
REMARK   33  A    between atoms: _85  and  _87
REMARK   34  A    between atoms: _87  and  _88
REMARK   35  A    between atoms: _87  and  _90
REMARK   36  A    between atoms: _90  and  _91
REMARK   37  A    between atoms: _96  and  _97
REMARK   38  A    between atoms: _99  and  _101
REMARK   39  A    between atoms: _101  and  _102
REMARK   40  A    between atoms: _101  and  _104
REMARK   41  A    between atoms: _104  and  _105
REMARK   42  A    between atoms: _107  and  _109
REMARK   43  A    between atoms: _109  and  _110
REMARK   44  A    between atoms: _109  and  _112
REMARK   45  A    between atoms: _112  and  _113
REMARK   46  A    between atoms: _115  and  _117
REMARK   47  A    between atoms: _117  and  _118
REMARK   48  A    between atoms: _117  and  _120
REMARK   49  A    between atoms: _123  and  _125
REMARK   50  A    between atoms: _125  and  _126
REMARK   51  A    between atoms: _125  and  _128
REMARK   52  A    between atoms: _128  and  _129
REMARK   53  A    between atoms: _134  and  _136
REMARK   54  A    between atoms: _136  and  _137
REMARK   55  A    between atoms: _136  and  _139
REMARK   56  A    between atoms: _139  and  _140
REMARK   57  A    between atoms: _140  and  _141
REMARK   58  A    between atoms: _144  and  _146
REMARK   59  A    between atoms: _146  and  _147
REMARK   60  A    between atoms: _146  and  _149
REMARK   61  A    between atoms: _149  and  _150
REMARK   62  A    between atoms: _160  and  _162
REMARK   63  A    between atoms: _162  and  _163
REMARK   64  A    between atoms: _162  and  _165
REMARK   65  A    between atoms: _165  and  _166
REMARK   66  A    between atoms: _171  and  _173
REMARK   67  A    between atoms: _173  and  _174
REMARK   68  A    between atoms: _173  and  _176
REMARK   69  A    between atoms: _176  and  _177
REMARK   70  A    between atoms: _180  and  _182
REMARK   71  A    between atoms: _182  and  _183
REMARK   72  A    between atoms: _182  and  _185
REMARK   73  A    between atoms: _185  and  _186
REMARK   74  A    between atoms: _186  and  _187
REMARK   75  A    between atoms: _192  and  _194
REMARK   76  A    between atoms: _194  and  _195
REMARK   77  A    between atoms: _194  and  _197
REMARK   78  A    between atoms: _197  and  _198
REMARK   79  A    between atoms: _198  and  _199
REMARK   80  A    between atoms: _202  and  _204
REMARK   81  A    between atoms: _204  and  _205
REMARK   82  A    between atoms: _204  and  _207
REMARK   83  A    between atoms: _207  and  _208
REMARK   84  A    between atoms: _210  and  _212
REMARK   85  A    between atoms: _212  and  _213
REMARK   86  A    between atoms: _212  and  _215
REMARK   87  A    between atoms: _218  and  _220
REMARK   88  A    between atoms: _220  and  _221
REMARK   89  A    between atoms: _220  and  _223
REMARK   90  A    between atoms: _223  and  _224
REMARK   91  A    between atoms: _230  and  _232
REMARK   92  A    between atoms: _232  and  _233
REMARK   93  A    between atoms: _232  and  _235
REMARK   94  A    between atoms: _235  and  _236
REMARK   95  A    between atoms: _236  and  _237
REMARK   96  A    between atoms: _237  and  _238
REMARK   97  A    between atoms: _247  and  _249
REMARK   98  A    between atoms: _249  and  _250
REMARK   99  A    between atoms: _249  and  _252
REMARK  100  A    between atoms: _252  and  _253
REMARK  101  A    between atoms: _259  and  _261
REMARK  102  A    between atoms: _261  and  _262
REMARK  103  A    between atoms: _261  and  _264
REMARK  104  A    between atoms: _264  and  _265
REMARK  105  A    between atoms: _267  and  _269
REMARK  106  A    between atoms: _269  and  _270
REMARK  107  A    between atoms: _269  and  _272
REMARK  108  A    between atoms: _272  and  _273
REMARK  109  A    between atoms: _278  and  _279
REMARK  110  A    between atoms: _281  and  _283
REMARK  111  A    between atoms: _283  and  _284
REMARK  112  A    between atoms: _283  and  _286
REMARK  113  A    between atoms: _286  and  _287
REMARK  114  A    between atoms: _293  and  _295
REMARK  115  A    between atoms: _295  and  _296
REMARK  116  A    between atoms: _295  and  _298
REMARK  117  A    between atoms: _298  and  _299
REMARK  118  A    between atoms: _302  and  _304
REMARK  119  A    between atoms: _304  and  _305
REMARK  120  A    between atoms: _304  and  _307
REMARK  121  A    between atoms: _310  and  _312
REMARK  122  A    between atoms: _312  and  _313
REMARK  123  A    between atoms: _312  and  _315
REMARK  124  A    between atoms: _315  and  _316
REMARK  125  A    between atoms: _321  and  _322
REMARK  126  A    between atoms: _324  and  _326
REMARK  127  A    between atoms: _326  and  _327
REMARK  128  A    between atoms: _329  and  _331
REMARK  129  A    between atoms: _331  and  _332
REMARK  130  A    between atoms: _335  and  _337
REMARK  131  A    between atoms: _337  and  _338
REMARK  132  A    between atoms: _337  and  _340
REMARK  133  A    between atoms: _343  and  _345
REMARK  134  A    between atoms: _345  and  _346
REMARK  135  A    between atoms: _345  and  _348
REMARK  136  A    between atoms: _351  and  _353
REMARK  137  A    between atoms: _353  and  _354
REMARK  138  A    between atoms: _353  and  _356
REMARK  139  A    between atoms: _356  and  _357
REMARK  140  A    between atoms: _362  and  _364
REMARK  141  A    between atoms: _364  and  _365
REMARK  142  A    between atoms: _364  and  _367
REMARK  143  A    between atoms: _367  and  _368
REMARK  144  A    between atoms: _378  and  _380
REMARK  145  A    between atoms: _380  and  _381
REMARK  146  A    between atoms: _380  and  _383
REMARK  147  A    between atoms: _383  and  _384
REMARK                            x       y       z     vdW  Elec       q    Type
REMARK                         _______ _______ _______ _____ _____    ______ ____
ROOT
ATOM      1  O   HOH     1     -22.388 -44.986  28.038  0.00  0.00    +0.000 OA
ENDROOT
TORSDOF 0
REMARK  Name = ../refined-set-2016/4m0e/4m0e_pocket.pdb
REMARK  147 active torsions:
REMARK  status: ('A' for Active; 'I' for Inactive)
REMARK    1  A    between atoms: _1  and  _3
REMARK    2  A    between atoms: _3  and  _4
REMARK    3  A    between atoms: _3  and  _6
REMARK    4  A    between atoms: _6  and  _7
REMARK    5  A    between atoms: _12  and  _13
REMARK    6  A    between atoms: _15  and  _17
REMARK    7  A    between atoms: _17  and  _18
REMARK    8  A    between atoms: _17  and  _20
REMARK    9  A    between atoms: _23  and  _25
REMARK   10  A    between atoms: _25  and  _26
REMARK   11  A    between atoms: _25  and  _28
REMARK   12  A    between atoms: _28  and  _29
REMARK   13  A    between atoms: _32  and  _34
REMARK   14  A    between atoms: _34  and  _35
REMARK   15  A    between atoms: _34  and  _37
REMARK   16  A    between atoms: _37  and  _38
REMARK   17  A    between atoms: _41  and  _43
REMARK   18  A    between atoms: _43  and  _44
REMARK   19  A    between atoms: _43  and  _46
REMARK   20  A    between atoms: _46  and  _47
REMARK   21  A    between atoms: _50  and  _52
REMARK   22  A    between atoms: _52  and  _53
REMARK   23  A    between atoms: _52  and  _55
REMARK   24  A    between atoms: _55  and  _56
REMARK   25  A    between atoms: _59  and  _61
REMARK   26  A    between atoms: _61  and  _62
REMARK   27  A    between atoms: _61  and  _64
REMARK   28  A    between atoms: _64  and  _65
REMARK   29  A    between atoms: _75  and  _77
REMARK   30  A    between atoms: _77  and  _78
REMARK   31  A    between atoms: _80  and  _82
REMARK   32  A    between atoms: _82  and  _83
REMARK   33  A    between atoms: _85  and  _87
REMARK   34  A    between atoms: _87  and  _88
REMARK   35  A    between atoms: _87  and  _90
REMARK   36  A    between atoms: _90  and  _91
REMARK   37  A    between atoms: _96  and  _97
REMARK   38  A    between atoms: _99  and  _101
REMARK   39  A    between atoms: _101  and  _102
REMARK   40  A    between atoms: _101  and  _104
REMARK   41  A    between atoms: _104  and  _105
REMARK   42  A    between atoms: _107  and  _109
REMARK   43  A    between atoms: _109  and  _110
REMARK   44  A    between atoms: _109  and  _112
REMARK   45  A    between atoms: _112  and  _113
REMARK   46  A    between atoms: _115  and  _117
REMARK   47  A    between atoms: _117  and  _118
REMARK   48  A    between atoms: _117  and  _120
REMARK   49  A    between atoms: _123  and  _125
REMARK   50  A    between atoms: _125  and  _126
REMARK   51  A    between atoms: _125  and  _128
REMARK   52  A    between atoms: _128  and  _129
REMARK   53  A    between atoms: _134  and  _136
REMARK   54  A    between atoms: _136  and  _137
REMARK   55  A    between atoms: _136  and  _139
REMARK   56  A    between atoms: _139  and  _140
REMARK   57  A    between atoms: _140  and  _141
REMARK   58  A    between atoms: _144  and  _146
REMARK   59  A    between atoms: _146  and  _147
REMARK   60  A    between atoms: _146  and  _149
REMARK   61  A    between atoms: _149  and  _150
REMARK   62  A    between atoms: _160  and  _162
REMARK   63  A    between atoms: _162  and  _163
REMARK   64  A    between atoms: _162  and  _165
REMARK   65  A    between atoms: _165  and  _166
REMARK   66  A    between atoms: _171  and  _173
REMARK   67  A    between atoms: _173  and  _174
REMARK   68  A    between atoms: _173  and  _176
REMARK   69  A    between atoms: _176  and  _177
REMARK   70  A    between atoms: _180  and  _182
REMARK   71  A    between atoms: _182  and  _183
REMARK   72  A    between atoms: _182  and  _185
REMARK   73  A    between atoms: _185  and  _186
REMARK   74  A    between atoms: _186  and  _187
REMARK   75  A    between atoms: _192  and  _194
REMARK   76  A    between atoms: _194  and  _195
REMARK   77  A    between atoms: _194  and  _197
REMARK   78  A    between atoms: _197  and  _198
REMARK   79  A    between atoms: _198  and  _199
REMARK   80  A    between atoms: _202  and  _204
REMARK   81  A    between atoms: _204  and  _205
REMARK   82  A    between atoms: _204  and  _207
REMARK   83  A    between atoms: _207  and  _208
REMARK   84  A    between atoms: _210  and  _212
REMARK   85  A    between atoms: _212  and  _213
REMARK   86  A    between atoms: _212  and  _215
REMARK   87  A    between atoms: _218  and  _220
REMARK   88  A    between atoms: _220  and  _221
REMARK   89  A    between atoms: _220  and  _223
REMARK   90  A    between atoms: _223  and  _224
REMARK   91  A    between atoms: _230  and  _232
REMARK   92  A    between atoms: _232  and  _233
REMARK   93  A    between atoms: _232  and  _235
REMARK   94  A    between atoms: _235  and  _236
REMARK   95  A    between atoms: _236  and  _237
REMARK   96  A    between atoms: _237  and  _238
REMARK   97  A    between atoms: _247  and  _249
REMARK   98  A    between atoms: _249  and  _250
REMARK   99  A    between atoms: _249  and  _252
REMARK  100  A    between atoms: _252  and  _253
REMARK  101  A    between atoms: _259  and  _261
REMARK  102  A    between atoms: _261  and  _262
REMARK  103  A    between atoms: _261  and  _264
REMARK  104  A    between atoms: _264  and  _265
REMARK  105  A    between atoms: _267  and  _269
REMARK  106  A    between atoms: _269  and  _270
REMARK  107  A    between atoms: _269  and  _272
REMARK  108  A    between atoms: _272  and  _273
REMARK  109  A    between atoms: _278  and  _279
REMARK  110  A    between atoms: _281  and  _283
REMARK  111  A    between atoms: _283  and  _284
REMARK  112  A    between atoms: _283  and  _286
REMARK  113  A    between atoms: _286  and  _287
REMARK  114  A    between atoms: _293  and  _295
REMARK  115  A    between atoms: _295  and  _296
REMARK  116  A    between atoms: _295  and  _298
REMARK  117  A    between atoms: _298  and  _299
REMARK  118  A    between atoms: _302  and  _304
REMARK  119  A    between atoms: _304  and  _305
REMARK  120  A    between atoms: _304  and  _307
REMARK  121  A    between atoms: _310  and  _312
REMARK  122  A    between atoms: _312  and  _313
REMARK  123  A    between atoms: _312  and  _315
REMARK  124  A    between atoms: _315  and  _316
REMARK  125  A    between atoms: _321  and  _322
REMARK  126  A    between atoms: _324  and  _326
REMARK  127  A    between atoms: _326  and  _327
REMARK  128  A    between atoms: _329  and  _331
REMARK  129  A    between atoms: _331  and  _332
REMARK  130  A    between atoms: _335  and  _337
REMARK  131  A    between atoms: _337  and  _338
REMARK  132  A    between atoms: _337  and  _340
REMARK  133  A    between atoms: _343  and  _345
REMARK  134  A    between atoms: _345  and  _346
REMARK  135  A    between atoms: _345  and  _348
REMARK  136  A    between atoms: _351  and  _353
REMARK  137  A    between atoms: _353  and  _354
REMARK  138  A    between atoms: _353  and  _356
REMARK  139  A    between atoms: _356  and  _357
REMARK  140  A    between atoms: _362  and  _364
REMARK  141  A    between atoms: _364  and  _365
REMARK  142  A    between atoms: _364  and  _367
REMARK  143  A    between atoms: _367  and  _368
REMARK  144  A    between atoms: _378  and  _380
REMARK  145  A    between atoms: _380  and  _381
REMARK  146  A    between atoms: _380  and  _383
REMARK  147  A    between atoms: _383  and  _384
REMARK                            x       y       z     vdW  Elec       q    Type
REMARK                         _______ _______ _______ _____ _____    ______ ____
ROOT
ATOM      1  O   HOH     1     -24.610 -45.474  29.233  0.00  0.00    +0.000 OA
ENDROOT
TORSDOF 0
REMARK  Name = ../refined-set-2016/4m0e/4m0e_pocket.pdb
REMARK  147 active torsions:
REMARK  status: ('A' for Active; 'I' for Inactive)
REMARK    1  A    between atoms: _1  and  _3
REMARK    2  A    between atoms: _3  and  _4
REMARK    3  A    between atoms: _3  and  _6
REMARK    4  A    between atoms: _6  and  _7
REMARK    5  A    between atoms: _12  and  _13
REMARK    6  A    between atoms: _15  and  _17
REMARK    7  A    between atoms: _17  and  _18
REMARK    8  A    between atoms: _17  and  _20
REMARK    9  A    between atoms: _23  and  _25
REMARK   10  A    between atoms: _25  and  _26
REMARK   11  A    between atoms: _25  and  _28
REMARK   12  A    between atoms: _28  and  _29
REMARK   13  A    between atoms: _32  and  _34
REMARK   14  A    between atoms: _34  and  _35
REMARK   15  A    between atoms: _34  and  _37
REMARK   16  A    between atoms: _37  and  _38
REMARK   17  A    between atoms: _41  and  _43
REMARK   18  A    between atoms: _43  and  _44
REMARK   19  A    between atoms: _43  and  _46
REMARK   20  A    between atoms: _46  and  _47
REMARK   21  A    between atoms: _50  and  _52
REMARK   22  A    between atoms: _52  and  _53
REMARK   23  A    between atoms: _52  and  _55
REMARK   24  A    between atoms: _55  and  _56
REMARK   25  A    between atoms: _59  and  _61
REMARK   26  A    between atoms: _61  and  _62
REMARK   27  A    between atoms: _61  and  _64
REMARK   28  A    between atoms: _64  and  _65
REMARK   29  A    between atoms: _75  and  _77
REMARK   30  A    between atoms: _77  and  _78
REMARK   31  A    between atoms: _80  and  _82
REMARK   32  A    between atoms: _82  and  _83
REMARK   33  A    between atoms: _85  and  _87
REMARK   34  A    between atoms: _87  and  _88
REMARK   35  A    between atoms: _87  and  _90
REMARK   36  A    between atoms: _90  and  _91
REMARK   37  A    between atoms: _96  and  _97
REMARK   38  A    between atoms: _99  and  _101
REMARK   39  A    between atoms: _101  and  _102
REMARK   40  A    between atoms: _101  and  _104
REMARK   41  A    between atoms: _104  and  _105
REMARK   42  A    between atoms: _107  and  _109
REMARK   43  A    between atoms: _109  and  _110
REMARK   44  A    between atoms: _109  and  _112
REMARK   45  A    between atoms: _112  and  _113
REMARK   46  A    between atoms: _115  and  _117
REMARK   47  A    between atoms: _117  and  _118
REMARK   48  A    between atoms: _117  and  _120
REMARK   49  A    between atoms: _123  and  _125
REMARK   50  A    between atoms: _125  and  _126
REMARK   51  A    between atoms: _125  and  _128
REMARK   52  A    between atoms: _128  and  _129
REMARK   53  A    between atoms: _134  and  _136
REMARK   54  A    between atoms: _136  and  _137
REMARK   55  A    between atoms: _136  and  _139
REMARK   56  A    between atoms: _139  and  _140
REMARK   57  A    between atoms: _140  and  _141
REMARK   58  A    between atoms: _144  and  _146
REMARK   59  A    between atoms: _146  and  _147
REMARK   60  A    between atoms: _146  and  _149
REMARK   61  A    between atoms: _149  and  _150
REMARK   62  A    between atoms: _160  and  _162
REMARK   63  A    between atoms: _162  and  _163
REMARK   64  A    between atoms: _162  and  _165
REMARK   65  A    between atoms: _165  and  _166
REMARK   66  A    between atoms: _171  and  _173
REMARK   67  A    between atoms: _173  and  _174
REMARK   68  A    between atoms: _173  and  _176
REMARK   69  A    between atoms: _176  and  _177
REMARK   70  A    between atoms: _180  and  _182
REMARK   71  A    between atoms: _182  and  _183
REMARK   72  A    between atoms: _182  and  _185
REMARK   73  A    between atoms: _185  and  _186
REMARK   74  A    between atoms: _186  and  _187
REMARK   75  A    between atoms: _192  and  _194
REMARK   76  A    between atoms: _194  and  _195
REMARK   77  A    between atoms: _194  and  _197
REMARK   78  A    between atoms: _197  and  _198
REMARK   79  A    between atoms: _198  and  _199
REMARK   80  A    between atoms: _202  and  _204
REMARK   81  A    between atoms: _204  and  _205
REMARK   82  A    between atoms: _204  and  _207
REMARK   83  A    between atoms: _207  and  _208
REMARK   84  A    between atoms: _210  and  _212
REMARK   85  A    between atoms: _212  and  _213
REMARK   86  A    between atoms: _212  and  _215
REMARK   87  A    between atoms: _218  and  _220
REMARK   88  A    between atoms: _220  and  _221
REMARK   89  A    between atoms: _220  and  _223
REMARK   90  A    between atoms: _223  and  _224
REMARK   91  A    between atoms: _230  and  _232
REMARK   92  A    between atoms: _232  and  _233
REMARK   93  A    between atoms: _232  and  _235
REMARK   94  A    between atoms: _235  and  _236
REMARK   95  A    between atoms: _236  and  _237
REMARK   96  A    between atoms: _237  and  _238
REMARK   97  A    between atoms: _247  and  _249
REMARK   98  A    between atoms: _249  and  _250
REMARK   99  A    between atoms: _249  and  _252
REMARK  100  A    between atoms: _252  and  _253
REMARK  101  A    between atoms: _259  and  _261
REMARK  102  A    between atoms: _261  and  _262
REMARK  103  A    between atoms: _261  and  _264
REMARK  104  A    between atoms: _264  and  _265
REMARK  105  A    between atoms: _267  and  _269
REMARK  106  A    between atoms: _269  and  _270
REMARK  107  A    between atoms: _269  and  _272
REMARK  108  A    between atoms: _272  and  _273
REMARK  109  A    between atoms: _278  and  _279
REMARK  110  A    between atoms: _281  and  _283
REMARK  111  A    between atoms: _283  and  _284
REMARK  112  A    between atoms: _283  and  _286
REMARK  113  A    between atoms: _286  and  _287
REMARK  114  A    between atoms: _293  and  _295
REMARK  115  A    between atoms: _295  and  _296
REMARK  116  A    between atoms: _295  and  _298
REMARK  117  A    between atoms: _298  and  _299
REMARK  118  A    between atoms: _302  and  _304
REMARK  119  A    between atoms: _304  and  _305
REMARK  120  A    between atoms: _304  and  _307
REMARK  121  A    between atoms: _310  and  _312
REMARK  122  A    between atoms: _312  and  _313
REMARK  123  A    between atoms: _312  and  _315
REMARK  124  A    between atoms: _315  and  _316
REMARK  125  A    between atoms: _321  and  _322
REMARK  126  A    between atoms: _324  and  _326
REMARK  127  A    between atoms: _326  and  _327
REMARK  128  A    between atoms: _329  and  _331
REMARK  129  A    between atoms: _331  and  _332
REMARK  130  A    between atoms: _335  and  _337
REMARK  131  A    between atoms: _337  and  _338
REMARK  132  A    between atoms: _337  and  _340
REMARK  133  A    between atoms: _343  and  _345
REMARK  134  A    between atoms: _345  and  _346
REMARK  135  A    between atoms: _345  and  _348
REMARK  136  A    between atoms: _351  and  _353
REMARK  137  A    between atoms: _353  and  _354
REMARK  138  A    between atoms: _353  and  _356
REMARK  139  A    between atoms: _356  and  _357
REMARK  140  A    between atoms: _362  and  _364
REMARK  141  A    between atoms: _364  and  _365
REMARK  142  A    between atoms: _364  and  _367
REMARK  143  A    between atoms: _367  and  _368
REMARK  144  A    between atoms: _378  and  _380
REMARK  145  A    between atoms: _380  and  _381
REMARK  146  A    between atoms: _380  and  _383
REMARK  147  A    between atoms: _383  and  _384
REMARK                            x       y       z     vdW  Elec       q    Type
REMARK                         _______ _______ _______ _____ _____    ______ ____
ROOT
ATOM      1  O   HOH     1     -21.080 -37.796  21.111  0.00  0.00    +0.000 OA
ENDROOT
TORSDOF 0
REMARK  Name = ../refined-set-2016/4m0e/4m0e_pocket.pdb
REMARK  147 active torsions:
REMARK  status: ('A' for Active; 'I' for Inactive)
REMARK    1  A    between atoms: _1  and  _3
REMARK    2  A    between atoms: _3  and  _4
REMARK    3  A    between atoms: _3  and  _6
REMARK    4  A    between atoms: _6  and  _7
REMARK    5  A    between atoms: _12  and  _13
REMARK    6  A    between atoms: _15  and  _17
REMARK    7  A    between atoms: _17  and  _18
REMARK    8  A    between atoms: _17  and  _20
REMARK    9  A    between atoms: _23  and  _25
REMARK   10  A    between atoms: _25  and  _26
REMARK   11  A    between atoms: _25  and  _28
REMARK   12  A    between atoms: _28  and  _29
REMARK   13  A    between atoms: _32  and  _34
REMARK   14  A    between atoms: _34  and  _35
REMARK   15  A    between atoms: _34  and  _37
REMARK   16  A    between atoms: _37  and  _38
REMARK   17  A    between atoms: _41  and  _43
REMARK   18  A    between atoms: _43  and  _44
REMARK   19  A    between atoms: _43  and  _46
REMARK   20  A    between atoms: _46  and  _47
REMARK   21  A    between atoms: _50  and  _52
REMARK   22  A    between atoms: _52  and  _53
REMARK   23  A    between atoms: _52  and  _55
REMARK   24  A    between atoms: _55  and  _56
REMARK   25  A    between atoms: _59  and  _61
REMARK   26  A    between atoms: _61  and  _62
REMARK   27  A    between atoms: _61  and  _64
REMARK   28  A    between atoms: _64  and  _65
REMARK   29  A    between atoms: _75  and  _77
REMARK   30  A    between atoms: _77  and  _78
REMARK   31  A    between atoms: _80  and  _82
REMARK   32  A    between atoms: _82  and  _83
REMARK   33  A    between atoms: _85  and  _87
REMARK   34  A    between atoms: _87  and  _88
REMARK   35  A    between atoms: _87  and  _90
REMARK   36  A    between atoms: _90  and  _91
REMARK   37  A    between atoms: _96  and  _97
REMARK   38  A    between atoms: _99  and  _101
REMARK   39  A    between atoms: _101  and  _102
REMARK   40  A    between atoms: _101  and  _104
REMARK   41  A    between atoms: _104  and  _105
REMARK   42  A    between atoms: _107  and  _109
REMARK   43  A    between atoms: _109  and  _110
REMARK   44  A    between atoms: _109  and  _112
REMARK   45  A    between atoms: _112  and  _113
REMARK   46  A    between atoms: _115  and  _117
REMARK   47  A    between atoms: _117  and  _118
REMARK   48  A    between atoms: _117  and  _120
REMARK   49  A    between atoms: _123  and  _125
REMARK   50  A    between atoms: _125  and  _126
REMARK   51  A    between atoms: _125  and  _128
REMARK   52  A    between atoms: _128  and  _129
REMARK   53  A    between atoms: _134  and  _136
REMARK   54  A    between atoms: _136  and  _137
REMARK   55  A    between atoms: _136  and  _139
REMARK   56  A    between atoms: _139  and  _140
REMARK   57  A    between atoms: _140  and  _141
REMARK   58  A    between atoms: _144  and  _146
REMARK   59  A    between atoms: _146  and  _147
REMARK   60  A    between atoms: _146  and  _149
REMARK   61  A    between atoms: _149  and  _150
REMARK   62  A    between atoms: _160  and  _162
REMARK   63  A    between atoms: _162  and  _163
REMARK   64  A    between atoms: _162  and  _165
REMARK   65  A    between atoms: _165  and  _166
REMARK   66  A    between atoms: _171  and  _173
REMARK   67  A    between atoms: _173  and  _174
REMARK   68  A    between atoms: _173  and  _176
REMARK   69  A    between atoms: _176  and  _177
REMARK   70  A    between atoms: _180  and  _182
REMARK   71  A    between atoms: _182  and  _183
REMARK   72  A    between atoms: _182  and  _185
REMARK   73  A    between atoms: _185  and  _186
REMARK   74  A    between atoms: _186  and  _187
REMARK   75  A    between atoms: _192  and  _194
REMARK   76  A    between atoms: _194  and  _195
REMARK   77  A    between atoms: _194  and  _197
REMARK   78  A    between atoms: _197  and  _198
REMARK   79  A    between atoms: _198  and  _199
REMARK   80  A    between atoms: _202  and  _204
REMARK   81  A    between atoms: _204  and  _205
REMARK   82  A    between atoms: _204  and  _207
REMARK   83  A    between atoms: _207  and  _208
REMARK   84  A    between atoms: _210  and  _212
REMARK   85  A    between atoms: _212  and  _213
REMARK   86  A    between atoms: _212  and  _215
REMARK   87  A    between atoms: _218  and  _220
REMARK   88  A    between atoms: _220  and  _221
REMARK   89  A    between atoms: _220  and  _223
REMARK   90  A    between atoms: _223  and  _224
REMARK   91  A    between atoms: _230  and  _232
REMARK   92  A    between atoms: _232  and  _233
REMARK   93  A    between atoms: _232  and  _235
REMARK   94  A    between atoms: _235  and  _236
REMARK   95  A    between atoms: _236  and  _237
REMARK   96  A    between atoms: _237  and  _238
REMARK   97  A    between atoms: _247  and  _249
REMARK   98  A    between atoms: _249  and  _250
REMARK   99  A    between atoms: _249  and  _252
REMARK  100  A    between atoms: _252  and  _253
REMARK  101  A    between atoms: _259  and  _261
REMARK  102  A    between atoms: _261  and  _262
REMARK  103  A    between atoms: _261  and  _264
REMARK  104  A    between atoms: _264  and  _265
REMARK  105  A    between atoms: _267  and  _269
REMARK  106  A    between atoms: _269  and  _270
REMARK  107  A    between atoms: _269  and  _272
REMARK  108  A    between atoms: _272  and  _273
REMARK  109  A    between atoms: _278  and  _279
REMARK  110  A    between atoms: _281  and  _283
REMARK  111  A    between atoms: _283  and  _284
REMARK  112  A    between atoms: _283  and  _286
REMARK  113  A    between atoms: _286  and  _287
REMARK  114  A    between atoms: _293  and  _295
REMARK  115  A    between atoms: _295  and  _296
REMARK  116  A    between atoms: _295  and  _298
REMARK  117  A    between atoms: _298  and  _299
REMARK  118  A    between atoms: _302  and  _304
REMARK  119  A    between atoms: _304  and  _305
REMARK  120  A    between atoms: _304  and  _307
REMARK  121  A    between atoms: _310  and  _312
REMARK  122  A    between atoms: _312  and  _313
REMARK  123  A    between atoms: _312  and  _315
REMARK  124  A    between atoms: _315  and  _316
REMARK  125  A    between atoms: _321  and  _322
REMARK  126  A    between atoms: _324  and  _326
REMARK  127  A    between atoms: _326  and  _327
REMARK  128  A    between atoms: _329  and  _331
REMARK  129  A    between atoms: _331  and  _332
REMARK  130  A    between atoms: _335  and  _337
REMARK  131  A    between atoms: _337  and  _338
REMARK  132  A    between atoms: _337  and  _340
REMARK  133  A    between atoms: _343  and  _345
REMARK  134  A    between atoms: _345  and  _346
REMARK  135  A    between atoms: _345  and  _348
REMARK  136  A    between atoms: _351  and  _353
REMARK  137  A    between atoms: _353  and  _354
REMARK  138  A    between atoms: _353  and  _356
REMARK  139  A    between atoms: _356  and  _357
REMARK  140  A    between atoms: _362  and  _364
REMARK  141  A    between atoms: _364  and  _365
REMARK  142  A    between atoms: _364  and  _367
REMARK  143  A    between atoms: _367  and  _368
REMARK  144  A    between atoms: _378  and  _380
REMARK  145  A    between atoms: _380  and  _381
REMARK  146  A    between atoms: _380  and  _383
REMARK  147  A    between atoms: _383  and  _384
REMARK                            x       y       z     vdW  Elec       q    Type
REMARK                         _______ _______ _______ _____ _____    ______ ____
ROOT
ATOM      1  O   HOH     1      -8.710 -42.787  29.415  0.00  0.00    +0.000 OA
ENDROOT
TORSDOF 0
REMARK  Name = ../refined-set-2016/4m0e/4m0e_pocket.pdb
REMARK  147 active torsions:
REMARK  status: ('A' for Active; 'I' for Inactive)
REMARK    1  A    between atoms: _1  and  _3
REMARK    2  A    between atoms: _3  and  _4
REMARK    3  A    between atoms: _3  and  _6
REMARK    4  A    between atoms: _6  and  _7
REMARK    5  A    between atoms: _12  and  _13
REMARK    6  A    between atoms: _15  and  _17
REMARK    7  A    between atoms: _17  and  _18
REMARK    8  A    between atoms: _17  and  _20
REMARK    9  A    between atoms: _23  and  _25
REMARK   10  A    between atoms: _25  and  _26
REMARK   11  A    between atoms: _25  and  _28
REMARK   12  A    between atoms: _28  and  _29
REMARK   13  A    between atoms: _32  and  _34
REMARK   14  A    between atoms: _34  and  _35
REMARK   15  A    between atoms: _34  and  _37
REMARK   16  A    between atoms: _37  and  _38
REMARK   17  A    between atoms: _41  and  _43
REMARK   18  A    between atoms: _43  and  _44
REMARK   19  A    between atoms: _43  and  _46
REMARK   20  A    between atoms: _46  and  _47
REMARK   21  A    between atoms: _50  and  _52
REMARK   22  A    between atoms: _52  and  _53
REMARK   23  A    between atoms: _52  and  _55
REMARK   24  A    between atoms: _55  and  _56
REMARK   25  A    between atoms: _59  and  _61
REMARK   26  A    between atoms: _61  and  _62
REMARK   27  A    between atoms: _61  and  _64
REMARK   28  A    between atoms: _64  and  _65
REMARK   29  A    between atoms: _75  and  _77
REMARK   30  A    between atoms: _77  and  _78
REMARK   31  A    between atoms: _80  and  _82
REMARK   32  A    between atoms: _82  and  _83
REMARK   33  A    between atoms: _85  and  _87
REMARK   34  A    between atoms: _87  and  _88
REMARK   35  A    between atoms: _87  and  _90
REMARK   36  A    between atoms: _90  and  _91
REMARK   37  A    between atoms: _96  and  _97
REMARK   38  A    between atoms: _99  and  _101
REMARK   39  A    between atoms: _101  and  _102
REMARK   40  A    between atoms: _101  and  _104
REMARK   41  A    between atoms: _104  and  _105
REMARK   42  A    between atoms: _107  and  _109
REMARK   43  A    between atoms: _109  and  _110
REMARK   44  A    between atoms: _109  and  _112
REMARK   45  A    between atoms: _112  and  _113
REMARK   46  A    between atoms: _115  and  _117
REMARK   47  A    between atoms: _117  and  _118
REMARK   48  A    between atoms: _117  and  _120
REMARK   49  A    between atoms: _123  and  _125
REMARK   50  A    between atoms: _125  and  _126
REMARK   51  A    between atoms: _125  and  _128
REMARK   52  A    between atoms: _128  and  _129
REMARK   53  A    between atoms: _134  and  _136
REMARK   54  A    between atoms: _136  and  _137
REMARK   55  A    between atoms: _136  and  _139
REMARK   56  A    between atoms: _139  and  _140
REMARK   57  A    between atoms: _140  and  _141
REMARK   58  A    between atoms: _144  and  _146
REMARK   59  A    between atoms: _146  and  _147
REMARK   60  A    between atoms: _146  and  _149
REMARK   61  A    between atoms: _149  and  _150
REMARK   62  A    between atoms: _160  and  _162
REMARK   63  A    between atoms: _162  and  _163
REMARK   64  A    between atoms: _162  and  _165
REMARK   65  A    between atoms: _165  and  _166
REMARK   66  A    between atoms: _171  and  _173
REMARK   67  A    between atoms: _173  and  _174
REMARK   68  A    between atoms: _173  and  _176
REMARK   69  A    between atoms: _176  and  _177
REMARK   70  A    between atoms: _180  and  _182
REMARK   71  A    between atoms: _182  and  _183
REMARK   72  A    between atoms: _182  and  _185
REMARK   73  A    between atoms: _185  and  _186
REMARK   74  A    between atoms: _186  and  _187
REMARK   75  A    between atoms: _192  and  _194
REMARK   76  A    between atoms: _194  and  _195
REMARK   77  A    between atoms: _194  and  _197
REMARK   78  A    between atoms: _197  and  _198
REMARK   79  A    between atoms: _198  and  _199
REMARK   80  A    between atoms: _202  and  _204
REMARK   81  A    between atoms: _204  and  _205
REMARK   82  A    between atoms: _204  and  _207
REMARK   83  A    between atoms: _207  and  _208
REMARK   84  A    between atoms: _210  and  _212
REMARK   85  A    between atoms: _212  and  _213
REMARK   86  A    between atoms: _212  and  _215
REMARK   87  A    between atoms: _218  and  _220
REMARK   88  A    between atoms: _220  and  _221
REMARK   89  A    between atoms: _220  and  _223
REMARK   90  A    between atoms: _223  and  _224
REMARK   91  A    between atoms: _230  and  _232
REMARK   92  A    between atoms: _232  and  _233
REMARK   93  A    between atoms: _232  and  _235
REMARK   94  A    between atoms: _235  and  _236
REMARK   95  A    between atoms: _236  and  _237
REMARK   96  A    between atoms: _237  and  _238
REMARK   97  A    between atoms: _247  and  _249
REMARK   98  A    between atoms: _249  and  _250
REMARK   99  A    between atoms: _249  and  _252
REMARK  100  A    between atoms: _252  and  _253
REMARK  101  A    between atoms: _259  and  _261
REMARK  102  A    between atoms: _261  and  _262
REMARK  103  A    between atoms: _261  and  _264
REMARK  104  A    between atoms: _264  and  _265
REMARK  105  A    between atoms: _267  and  _269
REMARK  106  A    between atoms: _269  and  _270
REMARK  107  A    between atoms: _269  and  _272
REMARK  108  A    between atoms: _272  and  _273
REMARK  109  A    between atoms: _278  and  _279
REMARK  110  A    between atoms: _281  and  _283
REMARK  111  A    between atoms: _283  and  _284
REMARK  112  A    between atoms: _283  and  _286
REMARK  113  A    between atoms: _286  and  _287
REMARK  114  A    between atoms: _293  and  _295
REMARK  115  A    between atoms: _295  and  _296
REMARK  116  A    between atoms: _295  and  _298
REMARK  117  A    between atoms: _298  and  _299
REMARK  118  A    between atoms: _302  and  _304
REMARK  119  A    between atoms: _304  and  _305
REMARK  120  A    between atoms: _304  and  _307
REMARK  121  A    between atoms: _310  and  _312
REMARK  122  A    between atoms: _312  and  _313
REMARK  123  A    between atoms: _312  and  _315
REMARK  124  A    between atoms: _315  and  _316
REMARK  125  A    between atoms: _321  and  _322
REMARK  126  A    between atoms: _324  and  _326
REMARK  127  A    between atoms: _326  and  _327
REMARK  128  A    between atoms: _329  and  _331
REMARK  129  A    between atoms: _331  and  _332
REMARK  130  A    between atoms: _335  and  _337
REMARK  131  A    between atoms: _337  and  _338
REMARK  132  A    between atoms: _337  and  _340
REMARK  133  A    between atoms: _343  and  _345
REMARK  134  A    between atoms: _345  and  _346
REMARK  135  A    between atoms: _345  and  _348
REMARK  136  A    between atoms: _351  and  _353
REMARK  137  A    between atoms: _353  and  _354
REMARK  138  A    between atoms: _353  and  _356
REMARK  139  A    between atoms: _356  and  _357
REMARK  140  A    between atoms: _362  and  _364
REMARK  141  A    between atoms: _364  and  _365
REMARK  142  A    between atoms: _364  and  _367
REMARK  143  A    between atoms: _367  and  _368
REMARK  144  A    between atoms: _378  and  _380
REMARK  145  A    between atoms: _380  and  _381
REMARK  146  A    between atoms: _380  and  _383
REMARK  147  A    between atoms: _383  and  _384
REMARK                            x       y       z     vdW  Elec       q    Type
REMARK                         _______ _______ _______ _____ _____    ______ ____
ROOT
ATOM      1  O   HOH     1     -24.528 -37.971  28.218  0.00  0.00    +0.000 OA
ENDROOT
TORSDOF 0
REMARK  Name = ../refined-set-2016/4m0e/4m0e_pocket.pdb
REMARK  147 active torsions:
REMARK  status: ('A' for Active; 'I' for Inactive)
REMARK    1  A    between atoms: _1  and  _3
REMARK    2  A    between atoms: _3  and  _4
REMARK    3  A    between atoms: _3  and  _6
REMARK    4  A    between atoms: _6  and  _7
REMARK    5  A    between atoms: _12  and  _13
REMARK    6  A    between atoms: _15  and  _17
REMARK    7  A    between atoms: _17  and  _18
REMARK    8  A    between atoms: _17  and  _20
REMARK    9  A    between atoms: _23  and  _25
REMARK   10  A    between atoms: _25  and  _26
REMARK   11  A    between atoms: _25  and  _28
REMARK   12  A    between atoms: _28  and  _29
REMARK   13  A    between atoms: _32  and  _34
REMARK   14  A    between atoms: _34  and  _35
REMARK   15  A    between atoms: _34  and  _37
REMARK   16  A    between atoms: _37  and  _38
REMARK   17  A    between atoms: _41  and  _43
REMARK   18  A    between atoms: _43  and  _44
REMARK   19  A    between atoms: _43  and  _46
REMARK   20  A    between atoms: _46  and  _47
REMARK   21  A    between atoms: _50  and  _52
REMARK   22  A    between atoms: _52  and  _53
REMARK   23  A    between atoms: _52  and  _55
REMARK   24  A    between atoms: _55  and  _56
REMARK   25  A    between atoms: _59  and  _61
REMARK   26  A    between atoms: _61  and  _62
REMARK   27  A    between atoms: _61  and  _64
REMARK   28  A    between atoms: _64  and  _65
REMARK   29  A    between atoms: _75  and  _77
REMARK   30  A    between atoms: _77  and  _78
REMARK   31  A    between atoms: _80  and  _82
REMARK   32  A    between atoms: _82  and  _83
REMARK   33  A    between atoms: _85  and  _87
REMARK   34  A    between atoms: _87  and  _88
REMARK   35  A    between atoms: _87  and  _90
REMARK   36  A    between atoms: _90  and  _91
REMARK   37  A    between atoms: _96  and  _97
REMARK   38  A    between atoms: _99  and  _101
REMARK   39  A    between atoms: _101  and  _102
REMARK   40  A    between atoms: _101  and  _104
REMARK   41  A    between atoms: _104  and  _105
REMARK   42  A    between atoms: _107  and  _109
REMARK   43  A    between atoms: _109  and  _110
REMARK   44  A    between atoms: _109  and  _112
REMARK   45  A    between atoms: _112  and  _113
REMARK   46  A    between atoms: _115  and  _117
REMARK   47  A    between atoms: _117  and  _118
REMARK   48  A    between atoms: _117  and  _120
REMARK   49  A    between atoms: _123  and  _125
REMARK   50  A    between atoms: _125  and  _126
REMARK   51  A    between atoms: _125  and  _128
REMARK   52  A    between atoms: _128  and  _129
REMARK   53  A    between atoms: _134  and  _136
REMARK   54  A    between atoms: _136  and  _137
REMARK   55  A    between atoms: _136  and  _139
REMARK   56  A    between atoms: _139  and  _140
REMARK   57  A    between atoms: _140  and  _141
REMARK   58  A    between atoms: _144  and  _146
REMARK   59  A    between atoms: _146  and  _147
REMARK   60  A    between atoms: _146  and  _149
REMARK   61  A    between atoms: _149  and  _150
REMARK   62  A    between atoms: _160  and  _162
REMARK   63  A    between atoms: _162  and  _163
REMARK   64  A    between atoms: _162  and  _165
REMARK   65  A    between atoms: _165  and  _166
REMARK   66  A    between atoms: _171  and  _173
REMARK   67  A    between atoms: _173  and  _174
REMARK   68  A    between atoms: _173  and  _176
REMARK   69  A    between atoms: _176  and  _177
REMARK   70  A    between atoms: _180  and  _182
REMARK   71  A    between atoms: _182  and  _183
REMARK   72  A    between atoms: _182  and  _185
REMARK   73  A    between atoms: _185  and  _186
REMARK   74  A    between atoms: _186  and  _187
REMARK   75  A    between atoms: _192  and  _194
REMARK   76  A    between atoms: _194  and  _195
REMARK   77  A    between atoms: _194  and  _197
REMARK   78  A    between atoms: _197  and  _198
REMARK   79  A    between atoms: _198  and  _199
REMARK   80  A    between atoms: _202  and  _204
REMARK   81  A    between atoms: _204  and  _205
REMARK   82  A    between atoms: _204  and  _207
REMARK   83  A    between atoms: _207  and  _208
REMARK   84  A    between atoms: _210  and  _212
REMARK   85  A    between atoms: _212  and  _213
REMARK   86  A    between atoms: _212  and  _215
REMARK   87  A    between atoms: _218  and  _220
REMARK   88  A    between atoms: _220  and  _221
REMARK   89  A    between atoms: _220  and  _223
REMARK   90  A    between atoms: _223  and  _224
REMARK   91  A    between atoms: _230  and  _232
REMARK   92  A    between atoms: _232  and  _233
REMARK   93  A    between atoms: _232  and  _235
REMARK   94  A    between atoms: _235  and  _236
REMARK   95  A    between atoms: _236  and  _237
REMARK   96  A    between atoms: _237  and  _238
REMARK   97  A    between atoms: _247  and  _249
REMARK   98  A    between atoms: _249  and  _250
REMARK   99  A    between atoms: _249  and  _252
REMARK  100  A    between atoms: _252  and  _253
REMARK  101  A    between atoms: _259  and  _261
REMARK  102  A    between atoms: _261  and  _262
REMARK  103  A    between atoms: _261  and  _264
REMARK  104  A    between atoms: _264  and  _265
REMARK  105  A    between atoms: _267  and  _269
REMARK  106  A    between atoms: _269  and  _270
REMARK  107  A    between atoms: _269  and  _272
REMARK  108  A    between atoms: _272  and  _273
REMARK  109  A    between atoms: _278  and  _279
REMARK  110  A    between atoms: _281  and  _283
REMARK  111  A    between atoms: _283  and  _284
REMARK  112  A    between atoms: _283  and  _286
REMARK  113  A    between atoms: _286  and  _287
REMARK  114  A    between atoms: _293  and  _295
REMARK  115  A    between atoms: _295  and  _296
REMARK  116  A    between atoms: _295  and  _298
REMARK  117  A    between atoms: _298  and  _299
REMARK  118  A    between atoms: _302  and  _304
REMARK  119  A    between atoms: _304  and  _305
REMARK  120  A    between atoms: _304  and  _307
REMARK  121  A    between atoms: _310  and  _312
REMARK  122  A    between atoms: _312  and  _313
REMARK  123  A    between atoms: _312  and  _315
REMARK  124  A    between atoms: _315  and  _316
REMARK  125  A    between atoms: _321  and  _322
REMARK  126  A    between atoms: _324  and  _326
REMARK  127  A    between atoms: _326  and  _327
REMARK  128  A    between atoms: _329  and  _331
REMARK  129  A    between atoms: _331  and  _332
REMARK  130  A    between atoms: _335  and  _337
REMARK  131  A    between atoms: _337  and  _338
REMARK  132  A    between atoms: _337  and  _340
REMARK  133  A    between atoms: _343  and  _345
REMARK  134  A    between atoms: _345  and  _346
REMARK  135  A    between atoms: _345  and  _348
REMARK  136  A    between atoms: _351  and  _353
REMARK  137  A    between atoms: _353  and  _354
REMARK  138  A    between atoms: _353  and  _356
REMARK  139  A    between atoms: _356  and  _357
REMARK  140  A    between atoms: _362  and  _364
REMARK  141  A    between atoms: _364  and  _365
REMARK  142  A    between atoms: _364  and  _367
REMARK  143  A    between atoms: _367  and  _368
REMARK  144  A    between atoms: _378  and  _380
REMARK  145  A    between atoms: _380  and  _381
REMARK  146  A    between atoms: _380  and  _383
REMARK  147  A    between atoms: _383  and  _384
REMARK                            x       y       z     vdW  Elec       q    Type
REMARK                         _______ _______ _______ _____ _____    ______ ____
ROOT
ATOM      1  O   HOH     1     -23.048 -39.131  21.566  0.00  0.00    +0.000 OA
ENDROOT
TORSDOF 0
REMARK  Name = ../refined-set-2016/4m0e/4m0e_pocket.pdb
REMARK  147 active torsions:
REMARK  status: ('A' for Active; 'I' for Inactive)
REMARK    1  A    between atoms: _1  and  _3
REMARK    2  A    between atoms: _3  and  _4
REMARK    3  A    between atoms: _3  and  _6
REMARK    4  A    between atoms: _6  and  _7
REMARK    5  A    between atoms: _12  and  _13
REMARK    6  A    between atoms: _15  and  _17
REMARK    7  A    between atoms: _17  and  _18
REMARK    8  A    between atoms: _17  and  _20
REMARK    9  A    between atoms: _23  and  _25
REMARK   10  A    between atoms: _25  and  _26
REMARK   11  A    between atoms: _25  and  _28
REMARK   12  A    between atoms: _28  and  _29
REMARK   13  A    between atoms: _32  and  _34
REMARK   14  A    between atoms: _34  and  _35
REMARK   15  A    between atoms: _34  and  _37
REMARK   16  A    between atoms: _37  and  _38
REMARK   17  A    between atoms: _41  and  _43
REMARK   18  A    between atoms: _43  and  _44
REMARK   19  A    between atoms: _43  and  _46
REMARK   20  A    between atoms: _46  and  _47
REMARK   21  A    between atoms: _50  and  _52
REMARK   22  A    between atoms: _52  and  _53
REMARK   23  A    between atoms: _52  and  _55
REMARK   24  A    between atoms: _55  and  _56
REMARK   25  A    between atoms: _59  and  _61
REMARK   26  A    between atoms: _61  and  _62
REMARK   27  A    between atoms: _61  and  _64
REMARK   28  A    between atoms: _64  and  _65
REMARK   29  A    between atoms: _75  and  _77
REMARK   30  A    between atoms: _77  and  _78
REMARK   31  A    between atoms: _80  and  _82
REMARK   32  A    between atoms: _82  and  _83
REMARK   33  A    between atoms: _85  and  _87
REMARK   34  A    between atoms: _87  and  _88
REMARK   35  A    between atoms: _87  and  _90
REMARK   36  A    between atoms: _90  and  _91
REMARK   37  A    between atoms: _96  and  _97
REMARK   38  A    between atoms: _99  and  _101
REMARK   39  A    between atoms: _101  and  _102
REMARK   40  A    between atoms: _101  and  _104
REMARK   41  A    between atoms: _104  and  _105
REMARK   42  A    between atoms: _107  and  _109
REMARK   43  A    between atoms: _109  and  _110
REMARK   44  A    between atoms: _109  and  _112
REMARK   45  A    between atoms: _112  and  _113
REMARK   46  A    between atoms: _115  and  _117
REMARK   47  A    between atoms: _117  and  _118
REMARK   48  A    between atoms: _117  and  _120
REMARK   49  A    between atoms: _123  and  _125
REMARK   50  A    between atoms: _125  and  _126
REMARK   51  A    between atoms: _125  and  _128
REMARK   52  A    between atoms: _128  and  _129
REMARK   53  A    between atoms: _134  and  _136
REMARK   54  A    between atoms: _136  and  _137
REMARK   55  A    between atoms: _136  and  _139
REMARK   56  A    between atoms: _139  and  _140
REMARK   57  A    between atoms: _140  and  _141
REMARK   58  A    between atoms: _144  and  _146
REMARK   59  A    between atoms: _146  and  _147
REMARK   60  A    between atoms: _146  and  _149
REMARK   61  A    between atoms: _149  and  _150
REMARK   62  A    between atoms: _160  and  _162
REMARK   63  A    between atoms: _162  and  _163
REMARK   64  A    between atoms: _162  and  _165
REMARK   65  A    between atoms: _165  and  _166
REMARK   66  A    between atoms: _171  and  _173
REMARK   67  A    between atoms: _173  and  _174
REMARK   68  A    between atoms: _173  and  _176
REMARK   69  A    between atoms: _176  and  _177
REMARK   70  A    between atoms: _180  and  _182
REMARK   71  A    between atoms: _182  and  _183
REMARK   72  A    between atoms: _182  and  _185
REMARK   73  A    between atoms: _185  and  _186
REMARK   74  A    between atoms: _186  and  _187
REMARK   75  A    between atoms: _192  and  _194
REMARK   76  A    between atoms: _194  and  _195
REMARK   77  A    between atoms: _194  and  _197
REMARK   78  A    between atoms: _197  and  _198
REMARK   79  A    between atoms: _198  and  _199
REMARK   80  A    between atoms: _202  and  _204
REMARK   81  A    between atoms: _204  and  _205
REMARK   82  A    between atoms: _204  and  _207
REMARK   83  A    between atoms: _207  and  _208
REMARK   84  A    between atoms: _210  and  _212
REMARK   85  A    between atoms: _212  and  _213
REMARK   86  A    between atoms: _212  and  _215
REMARK   87  A    between atoms: _218  and  _220
REMARK   88  A    between atoms: _220  and  _221
REMARK   89  A    between atoms: _220  and  _223
REMARK   90  A    between atoms: _223  and  _224
REMARK   91  A    between atoms: _230  and  _232
REMARK   92  A    between atoms: _232  and  _233
REMARK   93  A    between atoms: _232  and  _235
REMARK   94  A    between atoms: _235  and  _236
REMARK   95  A    between atoms: _236  and  _237
REMARK   96  A    between atoms: _237  and  _238
REMARK   97  A    between atoms: _247  and  _249
REMARK   98  A    between atoms: _249  and  _250
REMARK   99  A    between atoms: _249  and  _252
REMARK  100  A    between atoms: _252  and  _253
REMARK  101  A    between atoms: _259  and  _261
REMARK  102  A    between atoms: _261  and  _262
REMARK  103  A    between atoms: _261  and  _264
REMARK  104  A    between atoms: _264  and  _265
REMARK  105  A    between atoms: _267  and  _269
REMARK  106  A    between atoms: _269  and  _270
REMARK  107  A    between atoms: _269  and  _272
REMARK  108  A    between atoms: _272  and  _273
REMARK  109  A    between atoms: _278  and  _279
REMARK  110  A    between atoms: _281  and  _283
REMARK  111  A    between atoms: _283  and  _284
REMARK  112  A    between atoms: _283  and  _286
REMARK  113  A    between atoms: _286  and  _287
REMARK  114  A    between atoms: _293  and  _295
REMARK  115  A    between atoms: _295  and  _296
REMARK  116  A    between atoms: _295  and  _298
REMARK  117  A    between atoms: _298  and  _299
REMARK  118  A    between atoms: _302  and  _304
REMARK  119  A    between atoms: _304  and  _305
REMARK  120  A    between atoms: _304  and  _307
REMARK  121  A    between atoms: _310  and  _312
REMARK  122  A    between atoms: _312  and  _313
REMARK  123  A    between atoms: _312  and  _315
REMARK  124  A    between atoms: _315  and  _316
REMARK  125  A    between atoms: _321  and  _322
REMARK  126  A    between atoms: _324  and  _326
REMARK  127  A    between atoms: _326  and  _327
REMARK  128  A    between atoms: _329  and  _331
REMARK  129  A    between atoms: _331  and  _332
REMARK  130  A    between atoms: _335  and  _337
REMARK  131  A    between atoms: _337  and  _338
REMARK  132  A    between atoms: _337  and  _340
REMARK  133  A    between atoms: _343  and  _345
REMARK  134  A    between atoms: _345  and  _346
REMARK  135  A    between atoms: _345  and  _348
REMARK  136  A    between atoms: _351  and  _353
REMARK  137  A    between atoms: _353  and  _354
REMARK  138  A    between atoms: _353  and  _356
REMARK  139  A    between atoms: _356  and  _357
REMARK  140  A    between atoms: _362  and  _364
REMARK  141  A    between atoms: _364  and  _365
REMARK  142  A    between atoms: _364  and  _367
REMARK  143  A    between atoms: _367  and  _368
REMARK  144  A    between atoms: _378  and  _380
REMARK  145  A    between atoms: _380  and  _381
REMARK  146  A    between atoms: _380  and  _383
REMARK  147  A    between atoms: _383  and  _384
REMARK                            x       y       z     vdW  Elec       q    Type
REMARK                         _______ _______ _______ _____ _____    ______ ____
ROOT
ATOM      1  O   HOH     1     -22.316 -43.931  23.766  0.00  0.00    +0.000 OA
ENDROOT
TORSDOF 0
REMARK  Name = ../refined-set-2016/4m0e/4m0e_pocket.pdb
REMARK  147 active torsions:
REMARK  status: ('A' for Active; 'I' for Inactive)
REMARK    1  A    between atoms: _1  and  _3
REMARK    2  A    between atoms: _3  and  _4
REMARK    3  A    between atoms: _3  and  _6
REMARK    4  A    between atoms: _6  and  _7
REMARK    5  A    between atoms: _12  and  _13
REMARK    6  A    between atoms: _15  and  _17
REMARK    7  A    between atoms: _17  and  _18
REMARK    8  A    between atoms: _17  and  _20
REMARK    9  A    between atoms: _23  and  _25
REMARK   10  A    between atoms: _25  and  _26
REMARK   11  A    between atoms: _25  and  _28
REMARK   12  A    between atoms: _28  and  _29
REMARK   13  A    between atoms: _32  and  _34
REMARK   14  A    between atoms: _34  and  _35
REMARK   15  A    between atoms: _34  and  _37
REMARK   16  A    between atoms: _37  and  _38
REMARK   17  A    between atoms: _41  and  _43
REMARK   18  A    between atoms: _43  and  _44
REMARK   19  A    between atoms: _43  and  _46
REMARK   20  A    between atoms: _46  and  _47
REMARK   21  A    between atoms: _50  and  _52
REMARK   22  A    between atoms: _52  and  _53
REMARK   23  A    between atoms: _52  and  _55
REMARK   24  A    between atoms: _55  and  _56
REMARK   25  A    between atoms: _59  and  _61
REMARK   26  A    between atoms: _61  and  _62
REMARK   27  A    between atoms: _61  and  _64
REMARK   28  A    between atoms: _64  and  _65
REMARK   29  A    between atoms: _75  and  _77
REMARK   30  A    between atoms: _77  and  _78
REMARK   31  A    between atoms: _80  and  _82
REMARK   32  A    between atoms: _82  and  _83
REMARK   33  A    between atoms: _85  and  _87
REMARK   34  A    between atoms: _87  and  _88
REMARK   35  A    between atoms: _87  and  _90
REMARK   36  A    between atoms: _90  and  _91
REMARK   37  A    between atoms: _96  and  _97
REMARK   38  A    between atoms: _99  and  _101
REMARK   39  A    between atoms: _101  and  _102
REMARK   40  A    between atoms: _101  and  _104
REMARK   41  A    between atoms: _104  and  _105
REMARK   42  A    between atoms: _107  and  _109
REMARK   43  A    between atoms: _109  and  _110
REMARK   44  A    between atoms: _109  and  _112
REMARK   45  A    between atoms: _112  and  _113
REMARK   46  A    between atoms: _115  and  _117
REMARK   47  A    between atoms: _117  and  _118
REMARK   48  A    between atoms: _117  and  _120
REMARK   49  A    between atoms: _123  and  _125
REMARK   50  A    between atoms: _125  and  _126
REMARK   51  A    between atoms: _125  and  _128
REMARK   52  A    between atoms: _128  and  _129
REMARK   53  A    between atoms: _134  and  _136
REMARK   54  A    between atoms: _136  and  _137
REMARK   55  A    between atoms: _136  and  _139
REMARK   56  A    between atoms: _139  and  _140
REMARK   57  A    between atoms: _140  and  _141
REMARK   58  A    between atoms: _144  and  _146
REMARK   59  A    between atoms: _146  and  _147
REMARK   60  A    between atoms: _146  and  _149
REMARK   61  A    between atoms: _149  and  _150
REMARK   62  A    between atoms: _160  and  _162
REMARK   63  A    between atoms: _162  and  _163
REMARK   64  A    between atoms: _162  and  _165
REMARK   65  A    between atoms: _165  and  _166
REMARK   66  A    between atoms: _171  and  _173
REMARK   67  A    between atoms: _173  and  _174
REMARK   68  A    between atoms: _173  and  _176
REMARK   69  A    between atoms: _176  and  _177
REMARK   70  A    between atoms: _180  and  _182
REMARK   71  A    between atoms: _182  and  _183
REMARK   72  A    between atoms: _182  and  _185
REMARK   73  A    between atoms: _185  and  _186
REMARK   74  A    between atoms: _186  and  _187
REMARK   75  A    between atoms: _192  and  _194
REMARK   76  A    between atoms: _194  and  _195
REMARK   77  A    between atoms: _194  and  _197
REMARK   78  A    between atoms: _197  and  _198
REMARK   79  A    between atoms: _198  and  _199
REMARK   80  A    between atoms: _202  and  _204
REMARK   81  A    between atoms: _204  and  _205
REMARK   82  A    between atoms: _204  and  _207
REMARK   83  A    between atoms: _207  and  _208
REMARK   84  A    between atoms: _210  and  _212
REMARK   85  A    between atoms: _212  and  _213
REMARK   86  A    between atoms: _212  and  _215
REMARK   87  A    between atoms: _218  and  _220
REMARK   88  A    between atoms: _220  and  _221
REMARK   89  A    between atoms: _220  and  _223
REMARK   90  A    between atoms: _223  and  _224
REMARK   91  A    between atoms: _230  and  _232
REMARK   92  A    between atoms: _232  and  _233
REMARK   93  A    between atoms: _232  and  _235
REMARK   94  A    between atoms: _235  and  _236
REMARK   95  A    between atoms: _236  and  _237
REMARK   96  A    between atoms: _237  and  _238
REMARK   97  A    between atoms: _247  and  _249
REMARK   98  A    between atoms: _249  and  _250
REMARK   99  A    between atoms: _249  and  _252
REMARK  100  A    between atoms: _252  and  _253
REMARK  101  A    between atoms: _259  and  _261
REMARK  102  A    between atoms: _261  and  _262
REMARK  103  A    between atoms: _261  and  _264
REMARK  104  A    between atoms: _264  and  _265
REMARK  105  A    between atoms: _267  and  _269
REMARK  106  A    between atoms: _269  and  _270
REMARK  107  A    between atoms: _269  and  _272
REMARK  108  A    between atoms: _272  and  _273
REMARK  109  A    between atoms: _278  and  _279
REMARK  110  A    between atoms: _281  and  _283
REMARK  111  A    between atoms: _283  and  _284
REMARK  112  A    between atoms: _283  and  _286
REMARK  113  A    between atoms: _286  and  _287
REMARK  114  A    between atoms: _293  and  _295
REMARK  115  A    between atoms: _295  and  _296
REMARK  116  A    between atoms: _295  and  _298
REMARK  117  A    between atoms: _298  and  _299
REMARK  118  A    between atoms: _302  and  _304
REMARK  119  A    between atoms: _304  and  _305
REMARK  120  A    between atoms: _304  and  _307
REMARK  121  A    between atoms: _310  and  _312
REMARK  122  A    between atoms: _312  and  _313
REMARK  123  A    between atoms: _312  and  _315
REMARK  124  A    between atoms: _315  and  _316
REMARK  125  A    between atoms: _321  and  _322
REMARK  126  A    between atoms: _324  and  _326
REMARK  127  A    between atoms: _326  and  _327
REMARK  128  A    between atoms: _329  and  _331
REMARK  129  A    between atoms: _331  and  _332
REMARK  130  A    between atoms: _335  and  _337
REMARK  131  A    between atoms: _337  and  _338
REMARK  132  A    between atoms: _337  and  _340
REMARK  133  A    between atoms: _343  and  _345
REMARK  134  A    between atoms: _345  and  _346
REMARK  135  A    between atoms: _345  and  _348
REMARK  136  A    between atoms: _351  and  _353
REMARK  137  A    between atoms: _353  and  _354
REMARK  138  A    between atoms: _353  and  _356
REMARK  139  A    between atoms: _356  and  _357
REMARK  140  A    between atoms: _362  and  _364
REMARK  141  A    between atoms: _364  and  _365
REMARK  142  A    between atoms: _364  and  _367
REMARK  143  A    between atoms: _367  and  _368
REMARK  144  A    between atoms: _378  and  _380
REMARK  145  A    between atoms: _380  and  _381
REMARK  146  A    between atoms: _380  and  _383
REMARK  147  A    between atoms: _383  and  _384
REMARK                            x       y       z     vdW  Elec       q    Type
REMARK                         _______ _______ _______ _____ _____    ______ ____
ROOT
ATOM      1  O   HOH     1      -8.618 -42.199  27.266  0.00  0.00    +0.000 OA
ENDROOT
TORSDOF 0
REMARK  Name = ../refined-set-2016/4m0e/4m0e_pocket.pdb
REMARK  147 active torsions:
REMARK  status: ('A' for Active; 'I' for Inactive)
REMARK    1  A    between atoms: _1  and  _3
REMARK    2  A    between atoms: _3  and  _4
REMARK    3  A    between atoms: _3  and  _6
REMARK    4  A    between atoms: _6  and  _7
REMARK    5  A    between atoms: _12  and  _13
REMARK    6  A    between atoms: _15  and  _17
REMARK    7  A    between atoms: _17  and  _18
REMARK    8  A    between atoms: _17  and  _20
REMARK    9  A    between atoms: _23  and  _25
REMARK   10  A    between atoms: _25  and  _26
REMARK   11  A    between atoms: _25  and  _28
REMARK   12  A    between atoms: _28  and  _29
REMARK   13  A    between atoms: _32  and  _34
REMARK   14  A    between atoms: _34  and  _35
REMARK   15  A    between atoms: _34  and  _37
REMARK   16  A    between atoms: _37  and  _38
REMARK   17  A    between atoms: _41  and  _43
REMARK   18  A    between atoms: _43  and  _44
REMARK   19  A    between atoms: _43  and  _46
REMARK   20  A    between atoms: _46  and  _47
REMARK   21  A    between atoms: _50  and  _52
REMARK   22  A    between atoms: _52  and  _53
REMARK   23  A    between atoms: _52  and  _55
REMARK   24  A    between atoms: _55  and  _56
REMARK   25  A    between atoms: _59  and  _61
REMARK   26  A    between atoms: _61  and  _62
REMARK   27  A    between atoms: _61  and  _64
REMARK   28  A    between atoms: _64  and  _65
REMARK   29  A    between atoms: _75  and  _77
REMARK   30  A    between atoms: _77  and  _78
REMARK   31  A    between atoms: _80  and  _82
REMARK   32  A    between atoms: _82  and  _83
REMARK   33  A    between atoms: _85  and  _87
REMARK   34  A    between atoms: _87  and  _88
REMARK   35  A    between atoms: _87  and  _90
REMARK   36  A    between atoms: _90  and  _91
REMARK   37  A    between atoms: _96  and  _97
REMARK   38  A    between atoms: _99  and  _101
REMARK   39  A    between atoms: _101  and  _102
REMARK   40  A    between atoms: _101  and  _104
REMARK   41  A    between atoms: _104  and  _105
REMARK   42  A    between atoms: _107  and  _109
REMARK   43  A    between atoms: _109  and  _110
REMARK   44  A    between atoms: _109  and  _112
REMARK   45  A    between atoms: _112  and  _113
REMARK   46  A    between atoms: _115  and  _117
REMARK   47  A    between atoms: _117  and  _118
REMARK   48  A    between atoms: _117  and  _120
REMARK   49  A    between atoms: _123  and  _125
REMARK   50  A    between atoms: _125  and  _126
REMARK   51  A    between atoms: _125  and  _128
REMARK   52  A    between atoms: _128  and  _129
REMARK   53  A    between atoms: _134  and  _136
REMARK   54  A    between atoms: _136  and  _137
REMARK   55  A    between atoms: _136  and  _139
REMARK   56  A    between atoms: _139  and  _140
REMARK   57  A    between atoms: _140  and  _141
REMARK   58  A    between atoms: _144  and  _146
REMARK   59  A    between atoms: _146  and  _147
REMARK   60  A    between atoms: _146  and  _149
REMARK   61  A    between atoms: _149  and  _150
REMARK   62  A    between atoms: _160  and  _162
REMARK   63  A    between atoms: _162  and  _163
REMARK   64  A    between atoms: _162  and  _165
REMARK   65  A    between atoms: _165  and  _166
REMARK   66  A    between atoms: _171  and  _173
REMARK   67  A    between atoms: _173  and  _174
REMARK   68  A    between atoms: _173  and  _176
REMARK   69  A    between atoms: _176  and  _177
REMARK   70  A    between atoms: _180  and  _182
REMARK   71  A    between atoms: _182  and  _183
REMARK   72  A    between atoms: _182  and  _185
REMARK   73  A    between atoms: _185  and  _186
REMARK   74  A    between atoms: _186  and  _187
REMARK   75  A    between atoms: _192  and  _194
REMARK   76  A    between atoms: _194  and  _195
REMARK   77  A    between atoms: _194  and  _197
REMARK   78  A    between atoms: _197  and  _198
REMARK   79  A    between atoms: _198  and  _199
REMARK   80  A    between atoms: _202  and  _204
REMARK   81  A    between atoms: _204  and  _205
REMARK   82  A    between atoms: _204  and  _207
REMARK   83  A    between atoms: _207  and  _208
REMARK   84  A    between atoms: _210  and  _212
REMARK   85  A    between atoms: _212  and  _213
REMARK   86  A    between atoms: _212  and  _215
REMARK   87  A    between atoms: _218  and  _220
REMARK   88  A    between atoms: _220  and  _221
REMARK   89  A    between atoms: _220  and  _223
REMARK   90  A    between atoms: _223  and  _224
REMARK   91  A    between atoms: _230  and  _232
REMARK   92  A    between atoms: _232  and  _233
REMARK   93  A    between atoms: _232  and  _235
REMARK   94  A    between atoms: _235  and  _236
REMARK   95  A    between atoms: _236  and  _237
REMARK   96  A    between atoms: _237  and  _238
REMARK   97  A    between atoms: _247  and  _249
REMARK   98  A    between atoms: _249  and  _250
REMARK   99  A    between atoms: _249  and  _252
REMARK  100  A    between atoms: _252  and  _253
REMARK  101  A    between atoms: _259  and  _261
REMARK  102  A    between atoms: _261  and  _262
REMARK  103  A    between atoms: _261  and  _264
REMARK  104  A    between atoms: _264  and  _265
REMARK  105  A    between atoms: _267  and  _269
REMARK  106  A    between atoms: _269  and  _270
REMARK  107  A    between atoms: _269  and  _272
REMARK  108  A    between atoms: _272  and  _273
REMARK  109  A    between atoms: _278  and  _279
REMARK  110  A    between atoms: _281  and  _283
REMARK  111  A    between atoms: _283  and  _284
REMARK  112  A    between atoms: _283  and  _286
REMARK  113  A    between atoms: _286  and  _287
REMARK  114  A    between atoms: _293  and  _295
REMARK  115  A    between atoms: _295  and  _296
REMARK  116  A    between atoms: _295  and  _298
REMARK  117  A    between atoms: _298  and  _299
REMARK  118  A    between atoms: _302  and  _304
REMARK  119  A    between atoms: _304  and  _305
REMARK  120  A    between atoms: _304  and  _307
REMARK  121  A    between atoms: _310  and  _312
REMARK  122  A    between atoms: _312  and  _313
REMARK  123  A    between atoms: _312  and  _315
REMARK  124  A    between atoms: _315  and  _316
REMARK  125  A    between atoms: _321  and  _322
REMARK  126  A    between atoms: _324  and  _326
REMARK  127  A    between atoms: _326  and  _327
REMARK  128  A    between atoms: _329  and  _331
REMARK  129  A    between atoms: _331  and  _332
REMARK  130  A    between atoms: _335  and  _337
REMARK  131  A    between atoms: _337  and  _338
REMARK  132  A    between atoms: _337  and  _340
REMARK  133  A    between atoms: _343  and  _345
REMARK  134  A    between atoms: _345  and  _346
REMARK  135  A    between atoms: _345  and  _348
REMARK  136  A    between atoms: _351  and  _353
REMARK  137  A    between atoms: _353  and  _354
REMARK  138  A    between atoms: _353  and  _356
REMARK  139  A    between atoms: _356  and  _357
REMARK  140  A    between atoms: _362  and  _364
REMARK  141  A    between atoms: _364  and  _365
REMARK  142  A    between atoms: _364  and  _367
REMARK  143  A    between atoms: _367  and  _368
REMARK  144  A    between atoms: _378  and  _380
REMARK  145  A    between atoms: _380  and  _381
REMARK  146  A    between atoms: _380  and  _383
REMARK  147  A    between atoms: _383  and  _384
REMARK                            x       y       z     vdW  Elec       q    Type
REMARK                         _______ _______ _______ _____ _____    ______ ____
ROOT
ATOM      1  O   HOH     1     -24.666 -45.681  24.948  0.00  0.00    +0.000 OA
ENDROOT
TORSDOF 0
REMARK  Name = ../refined-set-2016/4m0e/4m0e_pocket.pdb
REMARK  147 active torsions:
REMARK  status: ('A' for Active; 'I' for Inactive)
REMARK    1  A    between atoms: _1  and  _3
REMARK    2  A    between atoms: _3  and  _4
REMARK    3  A    between atoms: _3  and  _6
REMARK    4  A    between atoms: _6  and  _7
REMARK    5  A    between atoms: _12  and  _13
REMARK    6  A    between atoms: _15  and  _17
REMARK    7  A    between atoms: _17  and  _18
REMARK    8  A    between atoms: _17  and  _20
REMARK    9  A    between atoms: _23  and  _25
REMARK   10  A    between atoms: _25  and  _26
REMARK   11  A    between atoms: _25  and  _28
REMARK   12  A    between atoms: _28  and  _29
REMARK   13  A    between atoms: _32  and  _34
REMARK   14  A    between atoms: _34  and  _35
REMARK   15  A    between atoms: _34  and  _37
REMARK   16  A    between atoms: _37  and  _38
REMARK   17  A    between atoms: _41  and  _43
REMARK   18  A    between atoms: _43  and  _44
REMARK   19  A    between atoms: _43  and  _46
REMARK   20  A    between atoms: _46  and  _47
REMARK   21  A    between atoms: _50  and  _52
REMARK   22  A    between atoms: _52  and  _53
REMARK   23  A    between atoms: _52  and  _55
REMARK   24  A    between atoms: _55  and  _56
REMARK   25  A    between atoms: _59  and  _61
REMARK   26  A    between atoms: _61  and  _62
REMARK   27  A    between atoms: _61  and  _64
REMARK   28  A    between atoms: _64  and  _65
REMARK   29  A    between atoms: _75  and  _77
REMARK   30  A    between atoms: _77  and  _78
REMARK   31  A    between atoms: _80  and  _82
REMARK   32  A    between atoms: _82  and  _83
REMARK   33  A    between atoms: _85  and  _87
REMARK   34  A    between atoms: _87  and  _88
REMARK   35  A    between atoms: _87  and  _90
REMARK   36  A    between atoms: _90  and  _91
REMARK   37  A    between atoms: _96  and  _97
REMARK   38  A    between atoms: _99  and  _101
REMARK   39  A    between atoms: _101  and  _102
REMARK   40  A    between atoms: _101  and  _104
REMARK   41  A    between atoms: _104  and  _105
REMARK   42  A    between atoms: _107  and  _109
REMARK   43  A    between atoms: _109  and  _110
REMARK   44  A    between atoms: _109  and  _112
REMARK   45  A    between atoms: _112  and  _113
REMARK   46  A    between atoms: _115  and  _117
REMARK   47  A    between atoms: _117  and  _118
REMARK   48  A    between atoms: _117  and  _120
REMARK   49  A    between atoms: _123  and  _125
REMARK   50  A    between atoms: _125  and  _126
REMARK   51  A    between atoms: _125  and  _128
REMARK   52  A    between atoms: _128  and  _129
REMARK   53  A    between atoms: _134  and  _136
REMARK   54  A    between atoms: _136  and  _137
REMARK   55  A    between atoms: _136  and  _139
REMARK   56  A    between atoms: _139  and  _140
REMARK   57  A    between atoms: _140  and  _141
REMARK   58  A    between atoms: _144  and  _146
REMARK   59  A    between atoms: _146  and  _147
REMARK   60  A    between atoms: _146  and  _149
REMARK   61  A    between atoms: _149  and  _150
REMARK   62  A    between atoms: _160  and  _162
REMARK   63  A    between atoms: _162  and  _163
REMARK   64  A    between atoms: _162  and  _165
REMARK   65  A    between atoms: _165  and  _166
REMARK   66  A    between atoms: _171  and  _173
REMARK   67  A    between atoms: _173  and  _174
REMARK   68  A    between atoms: _173  and  _176
REMARK   69  A    between atoms: _176  and  _177
REMARK   70  A    between atoms: _180  and  _182
REMARK   71  A    between atoms: _182  and  _183
REMARK   72  A    between atoms: _182  and  _185
REMARK   73  A    between atoms: _185  and  _186
REMARK   74  A    between atoms: _186  and  _187
REMARK   75  A    between atoms: _192  and  _194
REMARK   76  A    between atoms: _194  and  _195
REMARK   77  A    between atoms: _194  and  _197
REMARK   78  A    between atoms: _197  and  _198
REMARK   79  A    between atoms: _198  and  _199
REMARK   80  A    between atoms: _202  and  _204
REMARK   81  A    between atoms: _204  and  _205
REMARK   82  A    between atoms: _204  and  _207
REMARK   83  A    between atoms: _207  and  _208
REMARK   84  A    between atoms: _210  and  _212
REMARK   85  A    between atoms: _212  and  _213
REMARK   86  A    between atoms: _212  and  _215
REMARK   87  A    between atoms: _218  and  _220
REMARK   88  A    between atoms: _220  and  _221
REMARK   89  A    between atoms: _220  and  _223
REMARK   90  A    between atoms: _223  and  _224
REMARK   91  A    between atoms: _230  and  _232
REMARK   92  A    between atoms: _232  and  _233
REMARK   93  A    between atoms: _232  and  _235
REMARK   94  A    between atoms: _235  and  _236
REMARK   95  A    between atoms: _236  and  _237
REMARK   96  A    between atoms: _237  and  _238
REMARK   97  A    between atoms: _247  and  _249
REMARK   98  A    between atoms: _249  and  _250
REMARK   99  A    between atoms: _249  and  _252
REMARK  100  A    between atoms: _252  and  _253
REMARK  101  A    between atoms: _259  and  _261
REMARK  102  A    between atoms: _261  and  _262
REMARK  103  A    between atoms: _261  and  _264
REMARK  104  A    between atoms: _264  and  _265
REMARK  105  A    between atoms: _267  and  _269
REMARK  106  A    between atoms: _269  and  _270
REMARK  107  A    between atoms: _269  and  _272
REMARK  108  A    between atoms: _272  and  _273
REMARK  109  A    between atoms: _278  and  _279
REMARK  110  A    between atoms: _281  and  _283
REMARK  111  A    between atoms: _283  and  _284
REMARK  112  A    between atoms: _283  and  _286
REMARK  113  A    between atoms: _286  and  _287
REMARK  114  A    between atoms: _293  and  _295
REMARK  115  A    between atoms: _295  and  _296
REMARK  116  A    between atoms: _295  and  _298
REMARK  117  A    between atoms: _298  and  _299
REMARK  118  A    between atoms: _302  and  _304
REMARK  119  A    between atoms: _304  and  _305
REMARK  120  A    between atoms: _304  and  _307
REMARK  121  A    between atoms: _310  and  _312
REMARK  122  A    between atoms: _312  and  _313
REMARK  123  A    between atoms: _312  and  _315
REMARK  124  A    between atoms: _315  and  _316
REMARK  125  A    between atoms: _321  and  _322
REMARK  126  A    between atoms: _324  and  _326
REMARK  127  A    between atoms: _326  and  _327
REMARK  128  A    between atoms: _329  and  _331
REMARK  129  A    between atoms: _331  and  _332
REMARK  130  A    between atoms: _335  and  _337
REMARK  131  A    between atoms: _337  and  _338
REMARK  132  A    between atoms: _337  and  _340
REMARK  133  A    between atoms: _343  and  _345
REMARK  134  A    between atoms: _345  and  _346
REMARK  135  A    between atoms: _345  and  _348
REMARK  136  A    between atoms: _351  and  _353
REMARK  137  A    between atoms: _353  and  _354
REMARK  138  A    between atoms: _353  and  _356
REMARK  139  A    between atoms: _356  and  _357
REMARK  140  A    between atoms: _362  and  _364
REMARK  141  A    between atoms: _364  and  _365
REMARK  142  A    between atoms: _364  and  _367
REMARK  143  A    between atoms: _367  and  _368
REMARK  144  A    between atoms: _378  and  _380
REMARK  145  A    between atoms: _380  and  _381
REMARK  146  A    between atoms: _380  and  _383
REMARK  147  A    between atoms: _383  and  _384
REMARK                            x       y       z     vdW  Elec       q    Type
REMARK                         _______ _______ _______ _____ _____    ______ ____
ROOT
ATOM      1  O   HOH     1      -7.349 -43.933  31.779  0.00  0.00    +0.000 OA
ENDROOT
TORSDOF 0
