REMARK  Name = ../refined-set-2016/1rnm/1rnm_pocket.pdb
REMARK  114 active torsions:
REMARK  status: ('A' for Active; 'I' for Inactive)
REMARK    1  A    between atoms: _1  and  _3
REMARK    2  A    between atoms: _3  and  _4
REMARK    3  A    between atoms: _3  and  _6
REMARK    4  A    between atoms: _6  and  _7
REMARK    5  A    between atoms: _7  and  _8
REMARK    6  A    between atoms: _8  and  _9
REMARK    7  A    between atoms: _9  and  _10
REMARK    8  A    between atoms: _14  and  _16
REMARK    9  A    between atoms: _16  and  _17
REMARK   10  A    between atoms: _16  and  _19
REMARK   11  A    between atoms: _19  and  _20
REMARK   12  A    between atoms: _26  and  _28
REMARK   13  A    between atoms: _28  and  _29
REMARK   14  A    between atoms: _28  and  _31
REMARK   15  A    between atoms: _31  and  _32
REMARK   16  A    between atoms: _32  and  _33
REMARK   17  A    between atoms: _38  and  _40
REMARK   18  A    between atoms: _40  and  _41
REMARK   19  A    between atoms: _40  and  _43
REMARK   20  A    between atoms: _43  and  _44
REMARK   21  A    between atoms: _49  and  _51
REMARK   22  A    between atoms: _51  and  _52
REMARK   23  A    between atoms: _51  and  _54
REMARK   24  A    between atoms: _54  and  _55
REMARK   25  A    between atoms: _58  and  _60
REMARK   26  A    between atoms: _60  and  _61
REMARK   27  A    between atoms: _60  and  _63
REMARK   28  A    between atoms: _63  and  _64
REMARK   29  A    between atoms: _64  and  _65
REMARK   30  A    between atoms: _65  and  _66
REMARK   31  A    between atoms: _66  and  _67
REMARK   32  A    between atoms: _72  and  _73
REMARK   33  A    between atoms: _78  and  _80
REMARK   34  A    between atoms: _80  and  _81
REMARK   35  A    between atoms: _80  and  _83
REMARK   36  A    between atoms: _86  and  _88
REMARK   37  A    between atoms: _88  and  _89
REMARK   38  A    between atoms: _88  and  _91
REMARK   39  A    between atoms: _91  and  _92
REMARK   40  A    between atoms: _97  and  _99
REMARK   41  A    between atoms: _99  and  _100
REMARK   42  A    between atoms: _99  and  _102
REMARK   43  A    between atoms: _102  and  _103
REMARK   44  A    between atoms: _106  and  _108
REMARK   45  A    between atoms: _108  and  _109
REMARK   46  A    between atoms: _108  and  _111
REMARK   47  A    between atoms: _111  and  _112
REMARK   48  A    between atoms: _118  and  _120
REMARK   49  A    between atoms: _120  and  _121
REMARK   50  A    between atoms: _120  and  _123
REMARK   51  A    between atoms: _123  and  _124
REMARK   52  A    between atoms: _124  and  _125
REMARK   53  A    between atoms: _125  and  _126
REMARK   54  A    between atoms: _126  and  _127
REMARK   55  A    between atoms: _131  and  _133
REMARK   56  A    between atoms: _133  and  _134
REMARK   57  A    between atoms: _133  and  _136
REMARK   58  A    between atoms: _136  and  _137
REMARK   59  A    between atoms: _142  and  _144
REMARK   60  A    between atoms: _144  and  _145
REMARK   61  A    between atoms: _144  and  _147
REMARK   62  A    between atoms: _147  and  _148
REMARK   63  A    between atoms: _151  and  _153
REMARK   64  A    between atoms: _153  and  _154
REMARK   65  A    between atoms: _153  and  _156
REMARK   66  A    between atoms: _156  and  _157
REMARK   67  A    between atoms: _160  and  _162
REMARK   68  A    between atoms: _162  and  _163
REMARK   69  A    between atoms: _162  and  _165
REMARK   70  A    between atoms: _165  and  _166
REMARK   71  A    between atoms: _169  and  _171
REMARK   72  A    between atoms: _171  and  _172
REMARK   73  A    between atoms: _171  and  _174
REMARK   74  A    between atoms: _176  and  _178
REMARK   75  A    between atoms: _178  and  _179
REMARK   76  A    between atoms: _178  and  _181
REMARK   77  A    between atoms: _181  and  _182
REMARK   78  A    between atoms: _182  and  _183
REMARK   79  A    between atoms: _183  and  _184
REMARK   80  A    between atoms: _193  and  _195
REMARK   81  A    between atoms: _195  and  _196
REMARK   82  A    between atoms: _195  and  _198
REMARK   83  A    between atoms: _198  and  _199
REMARK   84  A    between atoms: _199  and  _200
REMARK   85  A    between atoms: _200  and  _201
REMARK   86  A    between atoms: _201  and  _202
REMARK   87  A    between atoms: _206  and  _208
REMARK   88  A    between atoms: _208  and  _209
REMARK   89  A    between atoms: _208  and  _211
REMARK   90  A    between atoms: _211  and  _212
REMARK   91  A    between atoms: _215  and  _217
REMARK   92  A    between atoms: _217  and  _218
REMARK   93  A    between atoms: _217  and  _220
REMARK   94  A    between atoms: _223  and  _225
REMARK   95  A    between atoms: _225  and  _226
REMARK   96  A    between atoms: _225  and  _228
REMARK   97  A    between atoms: _228  and  _229
REMARK   98  A    between atoms: _234  and  _236
REMARK   99  A    between atoms: _236  and  _237
REMARK  100  A    between atoms: _236  and  _239
REMARK  101  A    between atoms: _239  and  _240
REMARK  102  A    between atoms: _246  and  _248
REMARK  103  A    between atoms: _248  and  _249
REMARK  104  A    between atoms: _248  and  _251
REMARK  105  A    between atoms: _251  and  _252
REMARK  106  A    between atoms: _255  and  _257
REMARK  107  A    between atoms: _257  and  _258
REMARK  108  A    between atoms: _261  and  _263
REMARK  109  A    between atoms: _263  and  _264
REMARK  110  A    between atoms: _263  and  _266
REMARK  111  A    between atoms: _266  and  _267
REMARK  112  A    between atoms: _269  and  _271
REMARK  113  A    between atoms: _271  and  _272
REMARK  114  A    between atoms: _271  and  _274
REMARK                            x       y       z     vdW  Elec       q    Type
REMARK                         _______ _______ _______ _____ _____    ______ ____
ROOT
ATOM      1  C   LYS A   1      23.595   9.948  24.452  0.00  0.00    +0.238 C 
ATOM      2  N   PHE A   2      24.038  10.215  25.668  0.00  0.00    -0.298 N 
ATOM      3  H   PHE A   2      24.424   9.430  26.230  0.00  0.00    +0.150 HD
ATOM      4  O   LYS A   1      23.116  10.834  23.739  0.00  0.00    -0.274 OA
ENDROOT
BRANCH   1   5
ATOM      5  CA  LYS A   1      23.749   8.510  23.975  0.00  0.00    +0.145 C 
BRANCH   5   6
ATOM      6  N   LYS A   1      25.016   7.941  24.380  0.00  0.00    -0.238 NA
ATOM      7  H   LYS A   1      25.008   7.157  25.064  0.00  0.00    +0.142 HD
ENDBRANCH   5   6
BRANCH   5   8
ATOM      8  CB  LYS A   1      22.607   7.669  24.537  0.00  0.00    +0.026 C 
BRANCH   8   9
ATOM      9  CG  LYS A   1      21.236   8.169  24.079  0.00  0.00    -0.000 C 
BRANCH   9  10
ATOM     10  CD  LYS A   1      20.192   7.157  24.498  0.00  0.00    -0.024 C 
BRANCH  10  11
ATOM     11  CE  LYS A   1      18.781   7.669  24.289  0.00  0.00    -0.086 C 
BRANCH  11  12
ATOM     12  NZ  LYS A   1      17.833   7.015  25.269  0.00  0.00    +0.380 N 
ATOM     13  HZ1 LYS A   1      18.134   7.235  26.240  0.00  0.00    -0.089 HD
ATOM     14  HZ2 LYS A   1      17.845   5.985  25.126  0.00  0.00    -0.089 HD
ATOM     15  HZ3 LYS A   1      16.871   7.377  25.112  0.00  0.00    -0.089 HD
ENDBRANCH  11  12
ENDBRANCH  10  11
ENDBRANCH   9  10
ENDBRANCH   8   9
ENDBRANCH   5   8
ENDBRANCH   1   5
BRANCH   2  16
ATOM     16  CA  PHE A   2      24.018  11.545  26.270  0.00  0.00    +0.141 C 
BRANCH  16  17
ATOM     17  C   PHE A   2      24.967  12.449  25.472  0.00  0.00    +0.227 C 
ATOM     18  O   PHE A   2      24.645  13.620  25.217  0.00  0.00    -0.286 OA
ENDBRANCH  16  17
BRANCH  16  19
ATOM     19  CB  PHE A   2      24.494  11.505  27.721  0.00  0.00    +0.054 C 
BRANCH  19  20
ATOM     20  CG  PHE A   2      24.639  12.847  28.368  0.00  0.00    -0.020 A 
ATOM     21  CD2 PHE A   2      23.582  13.415  29.042  0.00  0.00    -0.004 A 
ATOM     22  CE2 PHE A   2      23.713  14.677  29.624  0.00  0.00    -0.000 A 
ATOM     23  CZ  PHE A   2      24.908  15.370  29.526  0.00  0.00    -0.000 A 
ATOM     24  CE1 PHE A   2      25.984  14.802  28.852  0.00  0.00    -0.000 A 
ATOM     25  CD1 PHE A   2      25.823  13.546  28.283  0.00  0.00    -0.004 A 
ENDBRANCH  19  20
ENDBRANCH  16  19
ENDBRANCH   2  16
TORSDOF 11
REMARK  Name = ../refined-set-2016/1rnm/1rnm_pocket.pdb
REMARK  114 active torsions:
REMARK  status: ('A' for Active; 'I' for Inactive)
REMARK    1  A    between atoms: _1  and  _3
REMARK    2  A    between atoms: _3  and  _4
REMARK    3  A    between atoms: _3  and  _6
REMARK    4  A    between atoms: _6  and  _7
REMARK    5  A    between atoms: _7  and  _8
REMARK    6  A    between atoms: _8  and  _9
REMARK    7  A    between atoms: _9  and  _10
REMARK    8  A    between atoms: _14  and  _16
REMARK    9  A    between atoms: _16  and  _17
REMARK   10  A    between atoms: _16  and  _19
REMARK   11  A    between atoms: _19  and  _20
REMARK   12  A    between atoms: _26  and  _28
REMARK   13  A    between atoms: _28  and  _29
REMARK   14  A    between atoms: _28  and  _31
REMARK   15  A    between atoms: _31  and  _32
REMARK   16  A    between atoms: _32  and  _33
REMARK   17  A    between atoms: _38  and  _40
REMARK   18  A    between atoms: _40  and  _41
REMARK   19  A    between atoms: _40  and  _43
REMARK   20  A    between atoms: _43  and  _44
REMARK   21  A    between atoms: _49  and  _51
REMARK   22  A    between atoms: _51  and  _52
REMARK   23  A    between atoms: _51  and  _54
REMARK   24  A    between atoms: _54  and  _55
REMARK   25  A    between atoms: _58  and  _60
REMARK   26  A    between atoms: _60  and  _61
REMARK   27  A    between atoms: _60  and  _63
REMARK   28  A    between atoms: _63  and  _64
REMARK   29  A    between atoms: _64  and  _65
REMARK   30  A    between atoms: _65  and  _66
REMARK   31  A    between atoms: _66  and  _67
REMARK   32  A    between atoms: _72  and  _73
REMARK   33  A    between atoms: _78  and  _80
REMARK   34  A    between atoms: _80  and  _81
REMARK   35  A    between atoms: _80  and  _83
REMARK   36  A    between atoms: _86  and  _88
REMARK   37  A    between atoms: _88  and  _89
REMARK   38  A    between atoms: _88  and  _91
REMARK   39  A    between atoms: _91  and  _92
REMARK   40  A    between atoms: _97  and  _99
REMARK   41  A    between atoms: _99  and  _100
REMARK   42  A    between atoms: _99  and  _102
REMARK   43  A    between atoms: _102  and  _103
REMARK   44  A    between atoms: _106  and  _108
REMARK   45  A    between atoms: _108  and  _109
REMARK   46  A    between atoms: _108  and  _111
REMARK   47  A    between atoms: _111  and  _112
REMARK   48  A    between atoms: _118  and  _120
REMARK   49  A    between atoms: _120  and  _121
REMARK   50  A    between atoms: _120  and  _123
REMARK   51  A    between atoms: _123  and  _124
REMARK   52  A    between atoms: _124  and  _125
REMARK   53  A    between atoms: _125  and  _126
REMARK   54  A    between atoms: _126  and  _127
REMARK   55  A    between atoms: _131  and  _133
REMARK   56  A    between atoms: _133  and  _134
REMARK   57  A    between atoms: _133  and  _136
REMARK   58  A    between atoms: _136  and  _137
REMARK   59  A    between atoms: _142  and  _144
REMARK   60  A    between atoms: _144  and  _145
REMARK   61  A    between atoms: _144  and  _147
REMARK   62  A    between atoms: _147  and  _148
REMARK   63  A    between atoms: _151  and  _153
REMARK   64  A    between atoms: _153  and  _154
REMARK   65  A    between atoms: _153  and  _156
REMARK   66  A    between atoms: _156  and  _157
REMARK   67  A    between atoms: _160  and  _162
REMARK   68  A    between atoms: _162  and  _163
REMARK   69  A    between atoms: _162  and  _165
REMARK   70  A    between atoms: _165  and  _166
REMARK   71  A    between atoms: _169  and  _171
REMARK   72  A    between atoms: _171  and  _172
REMARK   73  A    between atoms: _171  and  _174
REMARK   74  A    between atoms: _176  and  _178
REMARK   75  A    between atoms: _178  and  _179
REMARK   76  A    between atoms: _178  and  _181
REMARK   77  A    between atoms: _181  and  _182
REMARK   78  A    between atoms: _182  and  _183
REMARK   79  A    between atoms: _183  and  _184
REMARK   80  A    between atoms: _193  and  _195
REMARK   81  A    between atoms: _195  and  _196
REMARK   82  A    between atoms: _195  and  _198
REMARK   83  A    between atoms: _198  and  _199
REMARK   84  A    between atoms: _199  and  _200
REMARK   85  A    between atoms: _200  and  _201
REMARK   86  A    between atoms: _201  and  _202
REMARK   87  A    between atoms: _206  and  _208
REMARK   88  A    between atoms: _208  and  _209
REMARK   89  A    between atoms: _208  and  _211
REMARK   90  A    between atoms: _211  and  _212
REMARK   91  A    between atoms: _215  and  _217
REMARK   92  A    between atoms: _217  and  _218
REMARK   93  A    between atoms: _217  and  _220
REMARK   94  A    between atoms: _223  and  _225
REMARK   95  A    between atoms: _225  and  _226
REMARK   96  A    between atoms: _225  and  _228
REMARK   97  A    between atoms: _228  and  _229
REMARK   98  A    between atoms: _234  and  _236
REMARK   99  A    between atoms: _236  and  _237
REMARK  100  A    between atoms: _236  and  _239
REMARK  101  A    between atoms: _239  and  _240
REMARK  102  A    between atoms: _246  and  _248
REMARK  103  A    between atoms: _248  and  _249
REMARK  104  A    between atoms: _248  and  _251
REMARK  105  A    between atoms: _251  and  _252
REMARK  106  A    between atoms: _255  and  _257
REMARK  107  A    between atoms: _257  and  _258
REMARK  108  A    between atoms: _261  and  _263
REMARK  109  A    between atoms: _263  and  _264
REMARK  110  A    between atoms: _263  and  _266
REMARK  111  A    between atoms: _266  and  _267
REMARK  112  A    between atoms: _269  and  _271
REMARK  113  A    between atoms: _271  and  _272
REMARK  114  A    between atoms: _271  and  _274
REMARK                            x       y       z     vdW  Elec       q    Type
REMARK                         _______ _______ _______ _____ _____    ______ ____
ROOT
ATOM      1  C   GLN A   1      22.361  15.507  22.785  0.00  0.00    +0.238 C 
ATOM      2  N   HIS A   2      23.372  15.700  23.648  0.00  0.00    -0.298 N 
ATOM      3  H   HIS A   2      24.031  14.921  23.849  0.00  0.00    +0.150 HD
ATOM      4  O   GLN A   1      21.626  16.450  22.478  0.00  0.00    -0.274 OA
ENDROOT
BRANCH   1   5
ATOM      5  CA  GLN A   1      22.112  14.142  22.177  0.00  0.00    +0.145 C 
BRANCH   5   6
ATOM      6  N   GLN A   1      23.270  13.261  22.040  0.00  0.00    -0.238 NA
ATOM      7  H   GLN A   1      23.411  12.484  22.716  0.00  0.00    +0.142 HD
ENDBRANCH   5   6
BRANCH   5   8
ATOM      8  CB  GLN A   1      21.121  13.494  23.151  0.00  0.00    +0.036 C 
BRANCH   8   9
ATOM      9  CG  GLN A   1      20.464  12.233  22.621  0.00  0.00    +0.087 C 
BRANCH   9  10
ATOM     10  CD  GLN A   1      19.273  11.886  23.484  0.00  0.00    +0.219 C 
ATOM     11  NE2 GLN A   1      19.437  11.716  24.779  0.00  0.00    -0.329 N 
ATOM     12 HE21 GLN A   1      18.615  11.528  25.387  0.00  0.00    +0.145 HD
ATOM     13 HE22 GLN A   1      20.389  11.770  25.194  0.00  0.00    +0.145 HD
ATOM     14  OE1 GLN A   1      18.154  11.823  22.994  0.00  0.00    -0.275 OA
ENDBRANCH   9  10
ENDBRANCH   8   9
ENDBRANCH   5   8
ENDBRANCH   1   5
BRANCH   2  15
ATOM     15  CA  HIS A   2      23.559  16.990  24.308  0.00  0.00    +0.143 C 
BRANCH  15  16
ATOM     16  C   HIS A   2      24.862  17.701  24.197  0.00  0.00    +0.227 C 
ATOM     17  O   HIS A   2      24.914  18.883  24.589  0.00  0.00    -0.286 OA
ENDBRANCH  15  16
BRANCH  15  18
ATOM     18  CB  HIS A   2      23.277  16.763  25.832  0.00  0.00    +0.075 C 
BRANCH  18  19
ATOM     19  CG  HIS A   2      21.902  16.223  26.080  0.00  0.00    +0.082 A 
ATOM     20  CD2 HIS A   2      21.469  14.984  26.472  0.00  0.00    +0.115 A 
ATOM     21  NE2 HIS A   2      20.107  15.024  26.512  0.00  0.00    -0.221 NA
ATOM     22  CE1 HIS A   2      19.694  16.229  26.165  0.00  0.00    +0.199 A 
ATOM     23  ND1 HIS A   2      20.760  16.962  25.890  0.00  0.00    -0.227 NA
ENDBRANCH  18  19
ENDBRANCH  15  18
ENDBRANCH   2  15
TORSDOF 9
REMARK  Name = ../refined-set-2016/1rnm/1rnm_pocket.pdb
REMARK  114 active torsions:
REMARK  status: ('A' for Active; 'I' for Inactive)
REMARK    1  A    between atoms: _1  and  _3
REMARK    2  A    between atoms: _3  and  _4
REMARK    3  A    between atoms: _3  and  _6
REMARK    4  A    between atoms: _6  and  _7
REMARK    5  A    between atoms: _7  and  _8
REMARK    6  A    between atoms: _8  and  _9
REMARK    7  A    between atoms: _9  and  _10
REMARK    8  A    between atoms: _14  and  _16
REMARK    9  A    between atoms: _16  and  _17
REMARK   10  A    between atoms: _16  and  _19
REMARK   11  A    between atoms: _19  and  _20
REMARK   12  A    between atoms: _26  and  _28
REMARK   13  A    between atoms: _28  and  _29
REMARK   14  A    between atoms: _28  and  _31
REMARK   15  A    between atoms: _31  and  _32
REMARK   16  A    between atoms: _32  and  _33
REMARK   17  A    between atoms: _38  and  _40
REMARK   18  A    between atoms: _40  and  _41
REMARK   19  A    between atoms: _40  and  _43
REMARK   20  A    between atoms: _43  and  _44
REMARK   21  A    between atoms: _49  and  _51
REMARK   22  A    between atoms: _51  and  _52
REMARK   23  A    between atoms: _51  and  _54
REMARK   24  A    between atoms: _54  and  _55
REMARK   25  A    between atoms: _58  and  _60
REMARK   26  A    between atoms: _60  and  _61
REMARK   27  A    between atoms: _60  and  _63
REMARK   28  A    between atoms: _63  and  _64
REMARK   29  A    between atoms: _64  and  _65
REMARK   30  A    between atoms: _65  and  _66
REMARK   31  A    between atoms: _66  and  _67
REMARK   32  A    between atoms: _72  and  _73
REMARK   33  A    between atoms: _78  and  _80
REMARK   34  A    between atoms: _80  and  _81
REMARK   35  A    between atoms: _80  and  _83
REMARK   36  A    between atoms: _86  and  _88
REMARK   37  A    between atoms: _88  and  _89
REMARK   38  A    between atoms: _88  and  _91
REMARK   39  A    between atoms: _91  and  _92
REMARK   40  A    between atoms: _97  and  _99
REMARK   41  A    between atoms: _99  and  _100
REMARK   42  A    between atoms: _99  and  _102
REMARK   43  A    between atoms: _102  and  _103
REMARK   44  A    between atoms: _106  and  _108
REMARK   45  A    between atoms: _108  and  _109
REMARK   46  A    between atoms: _108  and  _111
REMARK   47  A    between atoms: _111  and  _112
REMARK   48  A    between atoms: _118  and  _120
REMARK   49  A    between atoms: _120  and  _121
REMARK   50  A    between atoms: _120  and  _123
REMARK   51  A    between atoms: _123  and  _124
REMARK   52  A    between atoms: _124  and  _125
REMARK   53  A    between atoms: _125  and  _126
REMARK   54  A    between atoms: _126  and  _127
REMARK   55  A    between atoms: _131  and  _133
REMARK   56  A    between atoms: _133  and  _134
REMARK   57  A    between atoms: _133  and  _136
REMARK   58  A    between atoms: _136  and  _137
REMARK   59  A    between atoms: _142  and  _144
REMARK   60  A    between atoms: _144  and  _145
REMARK   61  A    between atoms: _144  and  _147
REMARK   62  A    between atoms: _147  and  _148
REMARK   63  A    between atoms: _151  and  _153
REMARK   64  A    between atoms: _153  and  _154
REMARK   65  A    between atoms: _153  and  _156
REMARK   66  A    between atoms: _156  and  _157
REMARK   67  A    between atoms: _160  and  _162
REMARK   68  A    between atoms: _162  and  _163
REMARK   69  A    between atoms: _162  and  _165
REMARK   70  A    between atoms: _165  and  _166
REMARK   71  A    between atoms: _169  and  _171
REMARK   72  A    between atoms: _171  and  _172
REMARK   73  A    between atoms: _171  and  _174
REMARK   74  A    between atoms: _176  and  _178
REMARK   75  A    between atoms: _178  and  _179
REMARK   76  A    between atoms: _178  and  _181
REMARK   77  A    between atoms: _181  and  _182
REMARK   78  A    between atoms: _182  and  _183
REMARK   79  A    between atoms: _183  and  _184
REMARK   80  A    between atoms: _193  and  _195
REMARK   81  A    between atoms: _195  and  _196
REMARK   82  A    between atoms: _195  and  _198
REMARK   83  A    between atoms: _198  and  _199
REMARK   84  A    between atoms: _199  and  _200
REMARK   85  A    between atoms: _200  and  _201
REMARK   86  A    between atoms: _201  and  _202
REMARK   87  A    between atoms: _206  and  _208
REMARK   88  A    between atoms: _208  and  _209
REMARK   89  A    between atoms: _208  and  _211
REMARK   90  A    between atoms: _211  and  _212
REMARK   91  A    between atoms: _215  and  _217
REMARK   92  A    between atoms: _217  and  _218
REMARK   93  A    between atoms: _217  and  _220
REMARK   94  A    between atoms: _223  and  _225
REMARK   95  A    between atoms: _225  and  _226
REMARK   96  A    between atoms: _225  and  _228
REMARK   97  A    between atoms: _228  and  _229
REMARK   98  A    between atoms: _234  and  _236
REMARK   99  A    between atoms: _236  and  _237
REMARK  100  A    between atoms: _236  and  _239
REMARK  101  A    between atoms: _239  and  _240
REMARK  102  A    between atoms: _246  and  _248
REMARK  103  A    between atoms: _248  and  _249
REMARK  104  A    between atoms: _248  and  _251
REMARK  105  A    between atoms: _251  and  _252
REMARK  106  A    between atoms: _255  and  _257
REMARK  107  A    between atoms: _257  and  _258
REMARK  108  A    between atoms: _261  and  _263
REMARK  109  A    between atoms: _263  and  _264
REMARK  110  A    between atoms: _263  and  _266
REMARK  111  A    between atoms: _266  and  _267
REMARK  112  A    between atoms: _269  and  _271
REMARK  113  A    between atoms: _271  and  _272
REMARK  114  A    between atoms: _271  and  _274
REMARK                            x       y       z     vdW  Elec       q    Type
REMARK                         _______ _______ _______ _____ _____    ______ ____
ROOT
ATOM      1  CA  LEU A   1      16.733  13.443  17.143  0.00  0.00    +0.133 C 
ENDROOT
BRANCH   1   2
ATOM      2  N   LEU A   1      17.800  13.346  16.149  0.00  0.00    -0.239 NA
ATOM      3  H   LEU A   1      18.305  14.201  15.839  0.00  0.00    +0.142 HD
ENDBRANCH   1   2
BRANCH   1   4
ATOM      4  C   LEU A   1      15.368  13.682  16.528  0.00  0.00    +0.224 C 
ATOM      5  O   LEU A   1      14.371  13.841  17.234  0.00  0.00    -0.287 OA
ENDBRANCH   1   4
BRANCH   1   6
ATOM      6  CB  LEU A   1      17.091  14.563  18.130  0.00  0.00    +0.025 C 
BRANCH   6   7
ATOM      7  CG  LEU A   1      18.545  14.455  18.646  0.00  0.00    +0.002 C 
ATOM      8  CD2 LEU A   1      18.830  15.552  19.653  0.00  0.00    +0.000 C 
ATOM      9  CD1 LEU A   1      18.758  13.119  19.320  0.00  0.00    +0.000 C 
ENDBRANCH   6   7
ENDBRANCH   1   6
TORSDOF 4
REMARK  Name = ../refined-set-2016/1rnm/1rnm_pocket.pdb
REMARK  114 active torsions:
REMARK  status: ('A' for Active; 'I' for Inactive)
REMARK    1  A    between atoms: _1  and  _3
REMARK    2  A    between atoms: _3  and  _4
REMARK    3  A    between atoms: _3  and  _6
REMARK    4  A    between atoms: _6  and  _7
REMARK    5  A    between atoms: _7  and  _8
REMARK    6  A    between atoms: _8  and  _9
REMARK    7  A    between atoms: _9  and  _10
REMARK    8  A    between atoms: _14  and  _16
REMARK    9  A    between atoms: _16  and  _17
REMARK   10  A    between atoms: _16  and  _19
REMARK   11  A    between atoms: _19  and  _20
REMARK   12  A    between atoms: _26  and  _28
REMARK   13  A    between atoms: _28  and  _29
REMARK   14  A    between atoms: _28  and  _31
REMARK   15  A    between atoms: _31  and  _32
REMARK   16  A    between atoms: _32  and  _33
REMARK   17  A    between atoms: _38  and  _40
REMARK   18  A    between atoms: _40  and  _41
REMARK   19  A    between atoms: _40  and  _43
REMARK   20  A    between atoms: _43  and  _44
REMARK   21  A    between atoms: _49  and  _51
REMARK   22  A    between atoms: _51  and  _52
REMARK   23  A    between atoms: _51  and  _54
REMARK   24  A    between atoms: _54  and  _55
REMARK   25  A    between atoms: _58  and  _60
REMARK   26  A    between atoms: _60  and  _61
REMARK   27  A    between atoms: _60  and  _63
REMARK   28  A    between atoms: _63  and  _64
REMARK   29  A    between atoms: _64  and  _65
REMARK   30  A    between atoms: _65  and  _66
REMARK   31  A    between atoms: _66  and  _67
REMARK   32  A    between atoms: _72  and  _73
REMARK   33  A    between atoms: _78  and  _80
REMARK   34  A    between atoms: _80  and  _81
REMARK   35  A    between atoms: _80  and  _83
REMARK   36  A    between atoms: _86  and  _88
REMARK   37  A    between atoms: _88  and  _89
REMARK   38  A    between atoms: _88  and  _91
REMARK   39  A    between atoms: _91  and  _92
REMARK   40  A    between atoms: _97  and  _99
REMARK   41  A    between atoms: _99  and  _100
REMARK   42  A    between atoms: _99  and  _102
REMARK   43  A    between atoms: _102  and  _103
REMARK   44  A    between atoms: _106  and  _108
REMARK   45  A    between atoms: _108  and  _109
REMARK   46  A    between atoms: _108  and  _111
REMARK   47  A    between atoms: _111  and  _112
REMARK   48  A    between atoms: _118  and  _120
REMARK   49  A    between atoms: _120  and  _121
REMARK   50  A    between atoms: _120  and  _123
REMARK   51  A    between atoms: _123  and  _124
REMARK   52  A    between atoms: _124  and  _125
REMARK   53  A    between atoms: _125  and  _126
REMARK   54  A    between atoms: _126  and  _127
REMARK   55  A    between atoms: _131  and  _133
REMARK   56  A    between atoms: _133  and  _134
REMARK   57  A    between atoms: _133  and  _136
REMARK   58  A    between atoms: _136  and  _137
REMARK   59  A    between atoms: _142  and  _144
REMARK   60  A    between atoms: _144  and  _145
REMARK   61  A    between atoms: _144  and  _147
REMARK   62  A    between atoms: _147  and  _148
REMARK   63  A    between atoms: _151  and  _153
REMARK   64  A    between atoms: _153  and  _154
REMARK   65  A    between atoms: _153  and  _156
REMARK   66  A    between atoms: _156  and  _157
REMARK   67  A    between atoms: _160  and  _162
REMARK   68  A    between atoms: _162  and  _163
REMARK   69  A    between atoms: _162  and  _165
REMARK   70  A    between atoms: _165  and  _166
REMARK   71  A    between atoms: _169  and  _171
REMARK   72  A    between atoms: _171  and  _172
REMARK   73  A    between atoms: _171  and  _174
REMARK   74  A    between atoms: _176  and  _178
REMARK   75  A    between atoms: _178  and  _179
REMARK   76  A    between atoms: _178  and  _181
REMARK   77  A    between atoms: _181  and  _182
REMARK   78  A    between atoms: _182  and  _183
REMARK   79  A    between atoms: _183  and  _184
REMARK   80  A    between atoms: _193  and  _195
REMARK   81  A    between atoms: _195  and  _196
REMARK   82  A    between atoms: _195  and  _198
REMARK   83  A    between atoms: _198  and  _199
REMARK   84  A    between atoms: _199  and  _200
REMARK   85  A    between atoms: _200  and  _201
REMARK   86  A    between atoms: _201  and  _202
REMARK   87  A    between atoms: _206  and  _208
REMARK   88  A    between atoms: _208  and  _209
REMARK   89  A    between atoms: _208  and  _211
REMARK   90  A    between atoms: _211  and  _212
REMARK   91  A    between atoms: _215  and  _217
REMARK   92  A    between atoms: _217  and  _218
REMARK   93  A    between atoms: _217  and  _220
REMARK   94  A    between atoms: _223  and  _225
REMARK   95  A    between atoms: _225  and  _226
REMARK   96  A    between atoms: _225  and  _228
REMARK   97  A    between atoms: _228  and  _229
REMARK   98  A    between atoms: _234  and  _236
REMARK   99  A    between atoms: _236  and  _237
REMARK  100  A    between atoms: _236  and  _239
REMARK  101  A    between atoms: _239  and  _240
REMARK  102  A    between atoms: _246  and  _248
REMARK  103  A    between atoms: _248  and  _249
REMARK  104  A    between atoms: _248  and  _251
REMARK  105  A    between atoms: _251  and  _252
REMARK  106  A    between atoms: _255  and  _257
REMARK  107  A    between atoms: _257  and  _258
REMARK  108  A    between atoms: _261  and  _263
REMARK  109  A    between atoms: _263  and  _264
REMARK  110  A    between atoms: _263  and  _266
REMARK  111  A    between atoms: _266  and  _267
REMARK  112  A    between atoms: _269  and  _271
REMARK  113  A    between atoms: _271  and  _272
REMARK  114  A    between atoms: _271  and  _274
REMARK                            x       y       z     vdW  Elec       q    Type
REMARK                         _______ _______ _______ _____ _____    ______ ____
ROOT
ATOM      1  C   VAL A   3      14.095  19.036  23.968  0.00  0.00    +0.241 C 
ATOM      2  O   VAL A   3      14.200  17.843  24.263  0.00  0.00    -0.273 OA
ATOM      3  N   ASN A   4      15.159  19.798  23.674  0.00  0.00    -0.297 N 
ATOM      4  H   ASN A   4      15.047  20.792  23.391  0.00  0.00    +0.150 HD
ENDROOT
BRANCH   1   5
ATOM      5  CA  VAL A   3      12.714  19.656  23.936  0.00  0.00    +0.149 C 
BRANCH   5   7
ATOM      6  C   PRO A   2      10.945  19.252  22.321  0.00  0.00    +0.241 C 
ATOM      7  N   VAL A   3      11.733  18.786  23.288  0.00  0.00    -0.297 N 
ATOM      8  H   VAL A   3      11.650  17.793  23.586  0.00  0.00    +0.150 HD
ATOM      9  O   PRO A   2      11.044  20.423  21.922  0.00  0.00    -0.273 OA
BRANCH   6  15
ATOM     10  C   LYS A   1      11.319  16.785  20.425  0.00  0.00    +0.241 C 
ATOM     11  N   PRO A   2      10.394  17.001  21.340  0.00  0.00    -0.272 N 
ATOM     12  CD  PRO A   2       9.678  15.944  22.085  0.00  0.00    +0.094 C 
ATOM     13  CG  PRO A   2       8.422  16.632  22.491  0.00  0.00    +0.024 C 
ATOM     14  CB  PRO A   2       8.776  18.064  22.693  0.00  0.00    +0.031 C 
ATOM     15  CA  PRO A   2       9.924  18.326  21.706  0.00  0.00    +0.152 C 
ATOM     16  O   LYS A   1      11.864  17.706  19.810  0.00  0.00    -0.273 OA
BRANCH  10  17
ATOM     17  CA  LYS A   1      11.709  15.347  20.059  0.00  0.00    +0.145 C 
BRANCH  17  18
ATOM     18  N   LYS A   1      11.552  15.290  18.574  0.00  0.00    -0.238 NA
ATOM     19  H   LYS A   1      12.381  15.176  17.956  0.00  0.00    +0.142 HD
ENDBRANCH  17  18
BRANCH  17  20
ATOM     20  CB  LYS A   1      13.166  15.063  20.392  0.00  0.00    +0.026 C 
BRANCH  20  21
ATOM     21  CG  LYS A   1      13.436  14.790  21.863  0.00  0.00    -0.000 C 
BRANCH  21  22
ATOM     22  CD  LYS A   1      14.922  14.773  22.203  0.00  0.00    -0.024 C 
BRANCH  22  23
ATOM     23  CE  LYS A   1      15.063  14.449  23.694  0.00  0.00    -0.086 C 
BRANCH  23  24
ATOM     24  NZ  LYS A   1      16.471  14.398  24.151  0.00  0.00    +0.380 N 
ATOM     25  HZ1 LYS A   1      16.497  14.175  25.166  0.00  0.00    -0.089 HD
ATOM     26  HZ2 LYS A   1      16.921  15.321  23.986  0.00  0.00    -0.089 HD
ATOM     27  HZ3 LYS A   1      16.980  13.663  23.620  0.00  0.00    -0.089 HD
ENDBRANCH  23  24
ENDBRANCH  22  23
ENDBRANCH  21  22
ENDBRANCH  20  21
ENDBRANCH  17  20
ENDBRANCH  10  17
ENDBRANCH   6  15
ENDBRANCH   5   7
BRANCH   5  28
ATOM     28  CB  VAL A   3      12.297  19.866  25.426  0.00  0.00    +0.027 C 
ATOM     29  CG2 VAL A   3      13.160  20.940  26.060  0.00  0.00    +0.002 C 
ATOM     30  CG1 VAL A   3      10.860  20.321  25.557  0.00  0.00    +0.002 C 
ENDBRANCH   5  28
ENDBRANCH   1   5
BRANCH   3  31
ATOM     31  CA  ASN A   4      16.488  19.178  23.766  0.00  0.00    +0.158 C 
BRANCH  31  32
ATOM     32  C   ASN A   4      17.554  20.207  24.047  0.00  0.00    +0.241 C 
ATOM     33  N   THR A   5      18.397  20.042  25.080  0.00  0.00    -0.295 N 
ATOM     34  H   THR A   5      18.322  19.210  25.699  0.00  0.00    +0.150 HD
ATOM     35  O   ASN A   4      17.666  21.185  23.295  0.00  0.00    -0.273 OA
BRANCH  33  36
ATOM     36  CA  THR A   5      19.425  21.060  25.315  0.00  0.00    +0.176 C 
BRANCH  36  37
ATOM     37  C   THR A   5      20.809  20.651  24.844  0.00  0.00    +0.243 C 
ATOM     38  O   THR A   5      21.180  19.531  25.112  0.00  0.00    -0.273 OA
ATOM     39  N   PHE A   6      21.571  21.549  24.217  0.00  0.00    -0.298 N 
ATOM     40  H   PHE A   6      21.186  22.496  24.026  0.00  0.00    +0.150 HD
BRANCH  39  41
ATOM     41  CA  PHE A   6      22.932  21.236  23.792  0.00  0.00    +0.141 C 
BRANCH  41  42
ATOM     42  C   PHE A   6      23.881  22.049  24.661  0.00  0.00    +0.227 C 
ATOM     43  O   PHE A   6      23.569  23.225  24.929  0.00  0.00    -0.286 OA
ENDBRANCH  41  42
BRANCH  41  44
ATOM     44  CB  PHE A   6      23.198  21.639  22.334  0.00  0.00    +0.054 C 
BRANCH  44  45
ATOM     45  CG  PHE A   6      22.571  20.702  21.353  0.00  0.00    -0.020 A 
ATOM     46  CD2 PHE A   6      23.185  19.502  21.033  0.00  0.00    -0.004 A 
ATOM     47  CE2 PHE A   6      22.601  18.661  20.104  0.00  0.00    -0.000 A 
ATOM     48  CZ  PHE A   6      21.387  18.979  19.496  0.00  0.00    -0.000 A 
ATOM     49  CE1 PHE A   6      20.780  20.190  19.810  0.00  0.00    -0.000 A 
ATOM     50  CD1 PHE A   6      21.380  21.037  20.739  0.00  0.00    -0.004 A 
ENDBRANCH  44  45
ENDBRANCH  41  44
ENDBRANCH  39  41
ENDBRANCH  36  37
BRANCH  36  51
ATOM     51  CB  THR A   5      19.549  21.310  26.838  0.00  0.00    +0.137 C 
ATOM     52  CG2 THR A   5      20.485  22.452  27.185  0.00  0.00    +0.034 C 
BRANCH  51  53
ATOM     53  OG1 THR A   5      18.243  21.674  27.316  0.00  0.00    -0.382 OA
ATOM     54  HG1 THR A   5      18.285  21.842  28.291  0.00  0.00    +0.210 HD
ENDBRANCH  51  53
ENDBRANCH  36  51
ENDBRANCH  33  36
ENDBRANCH  31  32
BRANCH  31  55
ATOM     55  CB  ASN A   4      16.839  18.377  22.523  0.00  0.00    +0.114 C 
BRANCH  55  56
ATOM     56  CG  ASN A   4      18.076  17.530  22.752  0.00  0.00    +0.222 C 
ATOM     57  OD1 ASN A   4      17.994  16.524  23.458  0.00  0.00    -0.275 OA
ATOM     58  ND2 ASN A   4      19.228  17.911  22.210  0.00  0.00    -0.329 N 
ATOM     59 HD21 ASN A   4      20.091  17.355  22.378  0.00  0.00    +0.145 HD
ATOM     60 HD22 ASN A   4      19.267  18.765  21.618  0.00  0.00    +0.145 HD
ENDBRANCH  55  56
ENDBRANCH  31  55
ENDBRANCH   3  31
TORSDOF 23
REMARK  Name = ../refined-set-2016/1rnm/1rnm_pocket.pdb
REMARK  114 active torsions:
REMARK  status: ('A' for Active; 'I' for Inactive)
REMARK    1  A    between atoms: _1  and  _3
REMARK    2  A    between atoms: _3  and  _4
REMARK    3  A    between atoms: _3  and  _6
REMARK    4  A    between atoms: _6  and  _7
REMARK    5  A    between atoms: _7  and  _8
REMARK    6  A    between atoms: _8  and  _9
REMARK    7  A    between atoms: _9  and  _10
REMARK    8  A    between atoms: _14  and  _16
REMARK    9  A    between atoms: _16  and  _17
REMARK   10  A    between atoms: _16  and  _19
REMARK   11  A    between atoms: _19  and  _20
REMARK   12  A    between atoms: _26  and  _28
REMARK   13  A    between atoms: _28  and  _29
REMARK   14  A    between atoms: _28  and  _31
REMARK   15  A    between atoms: _31  and  _32
REMARK   16  A    between atoms: _32  and  _33
REMARK   17  A    between atoms: _38  and  _40
REMARK   18  A    between atoms: _40  and  _41
REMARK   19  A    between atoms: _40  and  _43
REMARK   20  A    between atoms: _43  and  _44
REMARK   21  A    between atoms: _49  and  _51
REMARK   22  A    between atoms: _51  and  _52
REMARK   23  A    between atoms: _51  and  _54
REMARK   24  A    between atoms: _54  and  _55
REMARK   25  A    between atoms: _58  and  _60
REMARK   26  A    between atoms: _60  and  _61
REMARK   27  A    between atoms: _60  and  _63
REMARK   28  A    between atoms: _63  and  _64
REMARK   29  A    between atoms: _64  and  _65
REMARK   30  A    between atoms: _65  and  _66
REMARK   31  A    between atoms: _66  and  _67
REMARK   32  A    between atoms: _72  and  _73
REMARK   33  A    between atoms: _78  and  _80
REMARK   34  A    between atoms: _80  and  _81
REMARK   35  A    between atoms: _80  and  _83
REMARK   36  A    between atoms: _86  and  _88
REMARK   37  A    between atoms: _88  and  _89
REMARK   38  A    between atoms: _88  and  _91
REMARK   39  A    between atoms: _91  and  _92
REMARK   40  A    between atoms: _97  and  _99
REMARK   41  A    between atoms: _99  and  _100
REMARK   42  A    between atoms: _99  and  _102
REMARK   43  A    between atoms: _102  and  _103
REMARK   44  A    between atoms: _106  and  _108
REMARK   45  A    between atoms: _108  and  _109
REMARK   46  A    between atoms: _108  and  _111
REMARK   47  A    between atoms: _111  and  _112
REMARK   48  A    between atoms: _118  and  _120
REMARK   49  A    between atoms: _120  and  _121
REMARK   50  A    between atoms: _120  and  _123
REMARK   51  A    between atoms: _123  and  _124
REMARK   52  A    between atoms: _124  and  _125
REMARK   53  A    between atoms: _125  and  _126
REMARK   54  A    between atoms: _126  and  _127
REMARK   55  A    between atoms: _131  and  _133
REMARK   56  A    between atoms: _133  and  _134
REMARK   57  A    between atoms: _133  and  _136
REMARK   58  A    between atoms: _136  and  _137
REMARK   59  A    between atoms: _142  and  _144
REMARK   60  A    between atoms: _144  and  _145
REMARK   61  A    between atoms: _144  and  _147
REMARK   62  A    between atoms: _147  and  _148
REMARK   63  A    between atoms: _151  and  _153
REMARK   64  A    between atoms: _153  and  _154
REMARK   65  A    between atoms: _153  and  _156
REMARK   66  A    between atoms: _156  and  _157
REMARK   67  A    between atoms: _160  and  _162
REMARK   68  A    between atoms: _162  and  _163
REMARK   69  A    between atoms: _162  and  _165
REMARK   70  A    between atoms: _165  and  _166
REMARK   71  A    between atoms: _169  and  _171
REMARK   72  A    between atoms: _171  and  _172
REMARK   73  A    between atoms: _171  and  _174
REMARK   74  A    between atoms: _176  and  _178
REMARK   75  A    between atoms: _178  and  _179
REMARK   76  A    between atoms: _178  and  _181
REMARK   77  A    between atoms: _181  and  _182
REMARK   78  A    between atoms: _182  and  _183
REMARK   79  A    between atoms: _183  and  _184
REMARK   80  A    between atoms: _193  and  _195
REMARK   81  A    between atoms: _195  and  _196
REMARK   82  A    between atoms: _195  and  _198
REMARK   83  A    between atoms: _198  and  _199
REMARK   84  A    between atoms: _199  and  _200
REMARK   85  A    between atoms: _200  and  _201
REMARK   86  A    between atoms: _201  and  _202
REMARK   87  A    between atoms: _206  and  _208
REMARK   88  A    between atoms: _208  and  _209
REMARK   89  A    between atoms: _208  and  _211
REMARK   90  A    between atoms: _211  and  _212
REMARK   91  A    between atoms: _215  and  _217
REMARK   92  A    between atoms: _217  and  _218
REMARK   93  A    between atoms: _217  and  _220
REMARK   94  A    between atoms: _223  and  _225
REMARK   95  A    between atoms: _225  and  _226
REMARK   96  A    between atoms: _225  and  _228
REMARK   97  A    between atoms: _228  and  _229
REMARK   98  A    between atoms: _234  and  _236
REMARK   99  A    between atoms: _236  and  _237
REMARK  100  A    between atoms: _236  and  _239
REMARK  101  A    between atoms: _239  and  _240
REMARK  102  A    between atoms: _246  and  _248
REMARK  103  A    between atoms: _248  and  _249
REMARK  104  A    between atoms: _248  and  _251
REMARK  105  A    between atoms: _251  and  _252
REMARK  106  A    between atoms: _255  and  _257
REMARK  107  A    between atoms: _257  and  _258
REMARK  108  A    between atoms: _261  and  _263
REMARK  109  A    between atoms: _263  and  _264
REMARK  110  A    between atoms: _263  and  _266
REMARK  111  A    between atoms: _266  and  _267
REMARK  112  A    between atoms: _269  and  _271
REMARK  113  A    between atoms: _271  and  _272
REMARK  114  A    between atoms: _271  and  _274
REMARK                            x       y       z     vdW  Elec       q    Type
REMARK                         _______ _______ _______ _____ _____    ______ ____
ROOT
ATOM      1  C   LYS A   1      11.736  14.598  38.816  0.00  0.00    +0.238 C 
ATOM      2  O   LYS A   1      10.624  14.763  39.313  0.00  0.00    -0.274 OA
ATOM      3  N   ASN A   2      12.248  13.404  38.587  0.00  0.00    -0.298 N 
ATOM      4  H   ASN A   2      13.201  13.348  38.174  0.00  0.00    +0.150 HD
ENDROOT
BRANCH   1   5
ATOM      5  CA  LYS A   1      12.583  15.826  38.463  0.00  0.00    +0.145 C 
BRANCH   5   6
ATOM      6  N   LYS A   1      14.010  15.558  38.613  0.00  0.00    -0.238 NA
ATOM      7  H   LYS A   1      14.625  15.695  37.786  0.00  0.00    +0.142 HD
ENDBRANCH   5   6
BRANCH   5   8
ATOM      8  CB  LYS A   1      12.222  16.189  37.031  0.00  0.00    +0.026 C 
BRANCH   8   9
ATOM      9  CG  LYS A   1      12.284  17.673  36.730  0.00  0.00    -0.000 C 
BRANCH   9  10
ATOM     10  CD  LYS A   1      12.356  17.900  35.233  0.00  0.00    -0.024 C 
BRANCH  10  11
ATOM     11  CE  LYS A   1      12.645  19.366  34.906  0.00  0.00    -0.086 C 
BRANCH  11  12
ATOM     12  NZ  LYS A   1      12.563  19.599  33.416  0.00  0.00    +0.380 N 
ATOM     13  HZ1 LYS A   1      12.762  20.599  33.211  0.00  0.00    -0.089 HD
ATOM     14  HZ2 LYS A   1      11.608  19.358  33.081  0.00  0.00    -0.089 HD
ATOM     15  HZ3 LYS A   1      13.263  18.999  32.934  0.00  0.00    -0.089 HD
ENDBRANCH  11  12
ENDBRANCH  10  11
ENDBRANCH   9  10
ENDBRANCH   8   9
ENDBRANCH   5   8
ENDBRANCH   1   5
BRANCH   3  16
ATOM     16  CA  ASN A   2      11.552  12.165  38.881  0.00  0.00    +0.146 C 
BRANCH  16  17
ATOM     17  C   ASN A   2      11.713  11.762  40.333  0.00  0.00    +0.227 C 
ATOM     18  O   ASN A   2      11.283  10.665  40.719  0.00  0.00    -0.286 OA
ENDBRANCH  16  17
BRANCH  16  19
ATOM     19  CB  ASN A   2      12.100  11.023  38.018  0.00  0.00    +0.112 C 
BRANCH  19  20
ATOM     20  CG  ASN A   2      13.482  10.540  38.319  0.00  0.00    +0.222 C 
ATOM     21  OD1 ASN A   2      14.200  11.011  39.202  0.00  0.00    -0.275 OA
ATOM     22  ND2 ASN A   2      13.971   9.522  37.613  0.00  0.00    -0.329 N 
ATOM     23 HD21 ASN A   2      14.923   9.157  37.818  0.00  0.00    +0.145 HD
ATOM     24 HD22 ASN A   2      13.401   9.092  36.857  0.00  0.00    +0.145 HD
ENDBRANCH  19  20
ENDBRANCH  16  19
ENDBRANCH   3  16
TORSDOF 11
REMARK  Name = ../refined-set-2016/1rnm/1rnm_pocket.pdb
REMARK  114 active torsions:
REMARK  status: ('A' for Active; 'I' for Inactive)
REMARK    1  A    between atoms: _1  and  _3
REMARK    2  A    between atoms: _3  and  _4
REMARK    3  A    between atoms: _3  and  _6
REMARK    4  A    between atoms: _6  and  _7
REMARK    5  A    between atoms: _7  and  _8
REMARK    6  A    between atoms: _8  and  _9
REMARK    7  A    between atoms: _9  and  _10
REMARK    8  A    between atoms: _14  and  _16
REMARK    9  A    between atoms: _16  and  _17
REMARK   10  A    between atoms: _16  and  _19
REMARK   11  A    between atoms: _19  and  _20
REMARK   12  A    between atoms: _26  and  _28
REMARK   13  A    between atoms: _28  and  _29
REMARK   14  A    between atoms: _28  and  _31
REMARK   15  A    between atoms: _31  and  _32
REMARK   16  A    between atoms: _32  and  _33
REMARK   17  A    between atoms: _38  and  _40
REMARK   18  A    between atoms: _40  and  _41
REMARK   19  A    between atoms: _40  and  _43
REMARK   20  A    between atoms: _43  and  _44
REMARK   21  A    between atoms: _49  and  _51
REMARK   22  A    between atoms: _51  and  _52
REMARK   23  A    between atoms: _51  and  _54
REMARK   24  A    between atoms: _54  and  _55
REMARK   25  A    between atoms: _58  and  _60
REMARK   26  A    between atoms: _60  and  _61
REMARK   27  A    between atoms: _60  and  _63
REMARK   28  A    between atoms: _63  and  _64
REMARK   29  A    between atoms: _64  and  _65
REMARK   30  A    between atoms: _65  and  _66
REMARK   31  A    between atoms: _66  and  _67
REMARK   32  A    between atoms: _72  and  _73
REMARK   33  A    between atoms: _78  and  _80
REMARK   34  A    between atoms: _80  and  _81
REMARK   35  A    between atoms: _80  and  _83
REMARK   36  A    between atoms: _86  and  _88
REMARK   37  A    between atoms: _88  and  _89
REMARK   38  A    between atoms: _88  and  _91
REMARK   39  A    between atoms: _91  and  _92
REMARK   40  A    between atoms: _97  and  _99
REMARK   41  A    between atoms: _99  and  _100
REMARK   42  A    between atoms: _99  and  _102
REMARK   43  A    between atoms: _102  and  _103
REMARK   44  A    between atoms: _106  and  _108
REMARK   45  A    between atoms: _108  and  _109
REMARK   46  A    between atoms: _108  and  _111
REMARK   47  A    between atoms: _111  and  _112
REMARK   48  A    between atoms: _118  and  _120
REMARK   49  A    between atoms: _120  and  _121
REMARK   50  A    between atoms: _120  and  _123
REMARK   51  A    between atoms: _123  and  _124
REMARK   52  A    between atoms: _124  and  _125
REMARK   53  A    between atoms: _125  and  _126
REMARK   54  A    between atoms: _126  and  _127
REMARK   55  A    between atoms: _131  and  _133
REMARK   56  A    between atoms: _133  and  _134
REMARK   57  A    between atoms: _133  and  _136
REMARK   58  A    between atoms: _136  and  _137
REMARK   59  A    between atoms: _142  and  _144
REMARK   60  A    between atoms: _144  and  _145
REMARK   61  A    between atoms: _144  and  _147
REMARK   62  A    between atoms: _147  and  _148
REMARK   63  A    between atoms: _151  and  _153
REMARK   64  A    between atoms: _153  and  _154
REMARK   65  A    between atoms: _153  and  _156
REMARK   66  A    between atoms: _156  and  _157
REMARK   67  A    between atoms: _160  and  _162
REMARK   68  A    between atoms: _162  and  _163
REMARK   69  A    between atoms: _162  and  _165
REMARK   70  A    between atoms: _165  and  _166
REMARK   71  A    between atoms: _169  and  _171
REMARK   72  A    between atoms: _171  and  _172
REMARK   73  A    between atoms: _171  and  _174
REMARK   74  A    between atoms: _176  and  _178
REMARK   75  A    between atoms: _178  and  _179
REMARK   76  A    between atoms: _178  and  _181
REMARK   77  A    between atoms: _181  and  _182
REMARK   78  A    between atoms: _182  and  _183
REMARK   79  A    between atoms: _183  and  _184
REMARK   80  A    between atoms: _193  and  _195
REMARK   81  A    between atoms: _195  and  _196
REMARK   82  A    between atoms: _195  and  _198
REMARK   83  A    between atoms: _198  and  _199
REMARK   84  A    between atoms: _199  and  _200
REMARK   85  A    between atoms: _200  and  _201
REMARK   86  A    between atoms: _201  and  _202
REMARK   87  A    between atoms: _206  and  _208
REMARK   88  A    between atoms: _208  and  _209
REMARK   89  A    between atoms: _208  and  _211
REMARK   90  A    between atoms: _211  and  _212
REMARK   91  A    between atoms: _215  and  _217
REMARK   92  A    between atoms: _217  and  _218
REMARK   93  A    between atoms: _217  and  _220
REMARK   94  A    between atoms: _223  and  _225
REMARK   95  A    between atoms: _225  and  _226
REMARK   96  A    between atoms: _225  and  _228
REMARK   97  A    between atoms: _228  and  _229
REMARK   98  A    between atoms: _234  and  _236
REMARK   99  A    between atoms: _236  and  _237
REMARK  100  A    between atoms: _236  and  _239
REMARK  101  A    between atoms: _239  and  _240
REMARK  102  A    between atoms: _246  and  _248
REMARK  103  A    between atoms: _248  and  _249
REMARK  104  A    between atoms: _248  and  _251
REMARK  105  A    between atoms: _251  and  _252
REMARK  106  A    between atoms: _255  and  _257
REMARK  107  A    between atoms: _257  and  _258
REMARK  108  A    between atoms: _261  and  _263
REMARK  109  A    between atoms: _263  and  _264
REMARK  110  A    between atoms: _263  and  _266
REMARK  111  A    between atoms: _266  and  _267
REMARK  112  A    between atoms: _269  and  _271
REMARK  113  A    between atoms: _271  and  _272
REMARK  114  A    between atoms: _271  and  _274
REMARK                            x       y       z     vdW  Elec       q    Type
REMARK                         _______ _______ _______ _____ _____    ______ ____
ROOT
ATOM      1  C   ASP A   3      16.960  25.215  23.118  0.00  0.00    +0.241 C 
ATOM      2  N   CYS A   4      16.498  24.027  22.752  0.00  0.00    -0.296 N 
ATOM      3  H   CYS A   4      16.637  23.225  23.400  0.00  0.00    +0.150 HD
ATOM      4  O   ASP A   3      16.839  26.198  22.380  0.00  0.00    -0.273 OA
ENDROOT
BRANCH   2   5
ATOM      5  CA  CYS A   4      15.805  23.782  21.490  0.00  0.00    +0.160 C 
BRANCH   5   6
ATOM      6  C   CYS A   4      14.394  23.339  21.804  0.00  0.00    +0.242 C 
ATOM      7  O   CYS A   4      14.184  22.350  22.517  0.00  0.00    -0.273 OA
ATOM      8  N   ARG A   5      13.393  24.049  21.294  0.00  0.00    -0.298 N 
ATOM      9  H   ARG A   5      13.592  24.858  20.672  0.00  0.00    +0.150 HD
BRANCH   8  10
ATOM     10  CA  ARG A   5      12.018  23.691  21.608  0.00  0.00    +0.137 C 
BRANCH  10  11
ATOM     11  C   ARG A   5      11.198  23.612  20.346  0.00  0.00    +0.227 C 
ATOM     12  O   ARG A   5      11.293  24.538  19.536  0.00  0.00    -0.286 OA
ENDBRANCH  10  11
BRANCH  10  13
ATOM     13  CB  ARG A   5      11.421  24.839  22.484  0.00  0.00    +0.031 C 
BRANCH  13  14
ATOM     14  CG  ARG A   5       9.984  24.498  22.844  0.00  0.00    +0.045 C 
BRANCH  14  15
ATOM     15  CD  ARG A   5       9.570  24.930  24.197  0.00  0.00    +0.174 C 
BRANCH  15  16
ATOM     16  NE  ARG A   5      10.046  24.322  25.413  0.00  0.00    -0.265 N 
ATOM     17  CZ  ARG A   5       9.403  23.595  26.322  0.00  0.00    +0.342 C 
ATOM     18  NH2 ARG A   5      10.099  23.254  27.407  0.00  0.00    -0.292 N 
ATOM     19 HH21 ARG A   5       9.652  22.686  28.154  0.00  0.00    +0.255 HD
ATOM     20 HH22 ARG A   5      11.089  23.556  27.506  0.00  0.00    +0.255 HD
ATOM     21  NH1 ARG A   5       8.130  23.277  26.211  0.00  0.00    -0.292 N 
ATOM     22 HH11 ARG A   5       7.670  22.706  26.949  0.00  0.00    +0.255 HD
ATOM     23 HH12 ARG A   5       7.584  23.597  25.386  0.00  0.00    +0.255 HD
ATOM     24  HE  ARG A   5      11.055  24.476  25.612  0.00  0.00    +0.259 HD
ENDBRANCH  15  16
ENDBRANCH  14  15
ENDBRANCH  13  14
ENDBRANCH  10  13
ENDBRANCH   8  10
ENDBRANCH   5   6
BRANCH   5  25
ATOM     25  CB  CYS A   4      16.491  22.708  20.647  0.00  0.00    +0.098 C 
ATOM     26  SG  CYS A   4      18.125  23.185  20.059  0.00  0.00    -0.080 S 
ENDBRANCH   5  25
ENDBRANCH   2   5
BRANCH   1  27
ATOM     27  CA  ASP A   3      17.689  25.306  24.472  0.00  0.00    +0.160 C 
BRANCH  27  29
ATOM     28  C   THR A   2      20.055  25.391  23.909  0.00  0.00    +0.243 C 
ATOM     29  N   ASP A   3      18.942  26.044  24.243  0.00  0.00    -0.296 N 
ATOM     30  H   ASP A   3      18.959  27.079  24.342  0.00  0.00    +0.150 HD
ATOM     31  O   THR A   2      20.160  24.163  23.824  0.00  0.00    -0.273 OA
BRANCH  28  32
ATOM     32  CA  THR A   2      21.282  26.255  23.648  0.00  0.00    +0.176 C 
BRANCH  32  35
ATOM     33  C   ILE A   1      22.897  26.823  25.400  0.00  0.00    +0.238 C 
ATOM     34  O   ILE A   1      22.824  28.028  25.178  0.00  0.00    -0.274 OA
ATOM     35  N   THR A   2      22.247  25.925  24.674  0.00  0.00    -0.295 N 
ATOM     36  H   THR A   2      22.443  24.919  24.853  0.00  0.00    +0.150 HD
BRANCH  33  37
ATOM     37  CA  ILE A   1      23.819  26.272  26.479  0.00  0.00    +0.145 C 
BRANCH  37  38
ATOM     38  CB  ILE A   1      23.025  25.658  27.643  0.00  0.00    +0.025 C 
ATOM     39  CG2 ILE A   1      23.970  25.101  28.708  0.00  0.00    +0.002 C 
BRANCH  38  40
ATOM     40  CG1 ILE A   1      22.116  26.653  28.355  0.00  0.00    +0.002 C 
ATOM     41  CD1 ILE A   1      20.642  26.454  28.107  0.00  0.00    +0.000 C 
ENDBRANCH  38  40
ENDBRANCH  37  38
BRANCH  37  42
ATOM     42  N   ILE A   1      24.718  27.318  26.950  0.00  0.00    -0.238 NA
ATOM     43  H   ILE A   1      24.354  28.272  27.146  0.00  0.00    +0.142 HD
ENDBRANCH  37  42
ENDBRANCH  33  37
ENDBRANCH  32  35
BRANCH  32  44
ATOM     44  CB  THR A   2      21.686  26.022  22.203  0.00  0.00    +0.137 C 
ATOM     45  CG2 THR A   2      20.586  26.505  21.248  0.00  0.00    +0.034 C 
BRANCH  44  46
ATOM     46  OG1 THR A   2      22.864  26.766  21.876  0.00  0.00    -0.382 OA
ATOM     47  HG1 THR A   2      23.607  26.481  22.465  0.00  0.00    +0.210 HD
ENDBRANCH  44  46
ENDBRANCH  32  44
ENDBRANCH  28  32
ENDBRANCH  27  29
BRANCH  27  48
ATOM     48  CB  ASP A   3      16.855  25.988  25.551  0.00  0.00    +0.143 C 
BRANCH  48  49
ATOM     49  CG  ASP A   3      15.457  25.442  25.760  0.00  0.00    +0.367 C 
ATOM     50  OD2 ASP A   3      15.241  24.692  26.734  0.00  0.00    -0.246 OA
ATOM     51  OD1 ASP A   3      14.516  25.721  24.975  0.00  0.00    -0.246 OA
ENDBRANCH  48  49
ENDBRANCH  27  48
ENDBRANCH   1  27
TORSDOF 21
REMARK  Name = ../refined-set-2016/1rnm/1rnm_pocket.pdb
REMARK  114 active torsions:
REMARK  status: ('A' for Active; 'I' for Inactive)
REMARK    1  A    between atoms: _1  and  _3
REMARK    2  A    between atoms: _3  and  _4
REMARK    3  A    between atoms: _3  and  _6
REMARK    4  A    between atoms: _6  and  _7
REMARK    5  A    between atoms: _7  and  _8
REMARK    6  A    between atoms: _8  and  _9
REMARK    7  A    between atoms: _9  and  _10
REMARK    8  A    between atoms: _14  and  _16
REMARK    9  A    between atoms: _16  and  _17
REMARK   10  A    between atoms: _16  and  _19
REMARK   11  A    between atoms: _19  and  _20
REMARK   12  A    between atoms: _26  and  _28
REMARK   13  A    between atoms: _28  and  _29
REMARK   14  A    between atoms: _28  and  _31
REMARK   15  A    between atoms: _31  and  _32
REMARK   16  A    between atoms: _32  and  _33
REMARK   17  A    between atoms: _38  and  _40
REMARK   18  A    between atoms: _40  and  _41
REMARK   19  A    between atoms: _40  and  _43
REMARK   20  A    between atoms: _43  and  _44
REMARK   21  A    between atoms: _49  and  _51
REMARK   22  A    between atoms: _51  and  _52
REMARK   23  A    between atoms: _51  and  _54
REMARK   24  A    between atoms: _54  and  _55
REMARK   25  A    between atoms: _58  and  _60
REMARK   26  A    between atoms: _60  and  _61
REMARK   27  A    between atoms: _60  and  _63
REMARK   28  A    between atoms: _63  and  _64
REMARK   29  A    between atoms: _64  and  _65
REMARK   30  A    between atoms: _65  and  _66
REMARK   31  A    between atoms: _66  and  _67
REMARK   32  A    between atoms: _72  and  _73
REMARK   33  A    between atoms: _78  and  _80
REMARK   34  A    between atoms: _80  and  _81
REMARK   35  A    between atoms: _80  and  _83
REMARK   36  A    between atoms: _86  and  _88
REMARK   37  A    between atoms: _88  and  _89
REMARK   38  A    between atoms: _88  and  _91
REMARK   39  A    between atoms: _91  and  _92
REMARK   40  A    between atoms: _97  and  _99
REMARK   41  A    between atoms: _99  and  _100
REMARK   42  A    between atoms: _99  and  _102
REMARK   43  A    between atoms: _102  and  _103
REMARK   44  A    between atoms: _106  and  _108
REMARK   45  A    between atoms: _108  and  _109
REMARK   46  A    between atoms: _108  and  _111
REMARK   47  A    between atoms: _111  and  _112
REMARK   48  A    between atoms: _118  and  _120
REMARK   49  A    between atoms: _120  and  _121
REMARK   50  A    between atoms: _120  and  _123
REMARK   51  A    between atoms: _123  and  _124
REMARK   52  A    between atoms: _124  and  _125
REMARK   53  A    between atoms: _125  and  _126
REMARK   54  A    between atoms: _126  and  _127
REMARK   55  A    between atoms: _131  and  _133
REMARK   56  A    between atoms: _133  and  _134
REMARK   57  A    between atoms: _133  and  _136
REMARK   58  A    between atoms: _136  and  _137
REMARK   59  A    between atoms: _142  and  _144
REMARK   60  A    between atoms: _144  and  _145
REMARK   61  A    between atoms: _144  and  _147
REMARK   62  A    between atoms: _147  and  _148
REMARK   63  A    between atoms: _151  and  _153
REMARK   64  A    between atoms: _153  and  _154
REMARK   65  A    between atoms: _153  and  _156
REMARK   66  A    between atoms: _156  and  _157
REMARK   67  A    between atoms: _160  and  _162
REMARK   68  A    between atoms: _162  and  _163
REMARK   69  A    between atoms: _162  and  _165
REMARK   70  A    between atoms: _165  and  _166
REMARK   71  A    between atoms: _169  and  _171
REMARK   72  A    between atoms: _171  and  _172
REMARK   73  A    between atoms: _171  and  _174
REMARK   74  A    between atoms: _176  and  _178
REMARK   75  A    between atoms: _178  and  _179
REMARK   76  A    between atoms: _178  and  _181
REMARK   77  A    between atoms: _181  and  _182
REMARK   78  A    between atoms: _182  and  _183
REMARK   79  A    between atoms: _183  and  _184
REMARK   80  A    between atoms: _193  and  _195
REMARK   81  A    between atoms: _195  and  _196
REMARK   82  A    between atoms: _195  and  _198
REMARK   83  A    between atoms: _198  and  _199
REMARK   84  A    between atoms: _199  and  _200
REMARK   85  A    between atoms: _200  and  _201
REMARK   86  A    between atoms: _201  and  _202
REMARK   87  A    between atoms: _206  and  _208
REMARK   88  A    between atoms: _208  and  _209
REMARK   89  A    between atoms: _208  and  _211
REMARK   90  A    between atoms: _211  and  _212
REMARK   91  A    between atoms: _215  and  _217
REMARK   92  A    between atoms: _217  and  _218
REMARK   93  A    between atoms: _217  and  _220
REMARK   94  A    between atoms: _223  and  _225
REMARK   95  A    between atoms: _225  and  _226
REMARK   96  A    between atoms: _225  and  _228
REMARK   97  A    between atoms: _228  and  _229
REMARK   98  A    between atoms: _234  and  _236
REMARK   99  A    between atoms: _236  and  _237
REMARK  100  A    between atoms: _236  and  _239
REMARK  101  A    between atoms: _239  and  _240
REMARK  102  A    between atoms: _246  and  _248
REMARK  103  A    between atoms: _248  and  _249
REMARK  104  A    between atoms: _248  and  _251
REMARK  105  A    between atoms: _251  and  _252
REMARK  106  A    between atoms: _255  and  _257
REMARK  107  A    between atoms: _257  and  _258
REMARK  108  A    between atoms: _261  and  _263
REMARK  109  A    between atoms: _263  and  _264
REMARK  110  A    between atoms: _263  and  _266
REMARK  111  A    between atoms: _266  and  _267
REMARK  112  A    between atoms: _269  and  _271
REMARK  113  A    between atoms: _271  and  _272
REMARK  114  A    between atoms: _271  and  _274
REMARK                            x       y       z     vdW  Elec       q    Type
REMARK                         _______ _______ _______ _____ _____    ______ ____
ROOT
ATOM      1  CG  LYS A   1      20.469  29.245  31.572  0.00  0.00    -0.000 C 
ENDROOT
BRANCH   1   2
ATOM      2  CB  LYS A   1      21.374  28.199  32.200  0.00  0.00    +0.025 C 
BRANCH   2   3
ATOM      3  CA  LYS A   1      22.703  28.796  32.782  0.00  0.00    +0.133 C 
BRANCH   3   4
ATOM      4  N   LYS A   1      23.481  29.222  31.618  0.00  0.00    -0.239 NA
ATOM      5  H   LYS A   1      23.959  28.509  31.031  0.00  0.00    +0.142 HD
ENDBRANCH   3   4
BRANCH   3   6
ATOM      6  C   LYS A   1      23.369  27.653  33.501  0.00  0.00    +0.224 C 
ATOM      7  O   LYS A   1      24.334  27.119  32.952  0.00  0.00    -0.287 OA
ENDBRANCH   3   6
ENDBRANCH   2   3
ENDBRANCH   1   2
BRANCH   1   8
ATOM      8  CD  LYS A   1      19.235  28.688  30.879  0.00  0.00    -0.024 C 
BRANCH   8   9
ATOM      9  CE  LYS A   1      18.254  28.102  31.866  0.00  0.00    -0.086 C 
BRANCH   9  10
ATOM     10  NZ  LYS A   1      16.892  27.801  31.356  0.00  0.00    +0.380 N 
ATOM     11  HZ1 LYS A   1      16.315  27.405  32.125  0.00  0.00    -0.089 HD
ATOM     12  HZ2 LYS A   1      16.453  28.677  31.007  0.00  0.00    -0.089 HD
ATOM     13  HZ3 LYS A   1      16.958  27.112  30.580  0.00  0.00    -0.089 HD
ENDBRANCH   9  10
ENDBRANCH   8   9
ENDBRANCH   1   8
TORSDOF 7
REMARK  Name = ../refined-set-2016/1rnm/1rnm_pocket.pdb
REMARK  114 active torsions:
REMARK  status: ('A' for Active; 'I' for Inactive)
REMARK    1  A    between atoms: _1  and  _3
REMARK    2  A    between atoms: _3  and  _4
REMARK    3  A    between atoms: _3  and  _6
REMARK    4  A    between atoms: _6  and  _7
REMARK    5  A    between atoms: _7  and  _8
REMARK    6  A    between atoms: _8  and  _9
REMARK    7  A    between atoms: _9  and  _10
REMARK    8  A    between atoms: _14  and  _16
REMARK    9  A    between atoms: _16  and  _17
REMARK   10  A    between atoms: _16  and  _19
REMARK   11  A    between atoms: _19  and  _20
REMARK   12  A    between atoms: _26  and  _28
REMARK   13  A    between atoms: _28  and  _29
REMARK   14  A    between atoms: _28  and  _31
REMARK   15  A    between atoms: _31  and  _32
REMARK   16  A    between atoms: _32  and  _33
REMARK   17  A    between atoms: _38  and  _40
REMARK   18  A    between atoms: _40  and  _41
REMARK   19  A    between atoms: _40  and  _43
REMARK   20  A    between atoms: _43  and  _44
REMARK   21  A    between atoms: _49  and  _51
REMARK   22  A    between atoms: _51  and  _52
REMARK   23  A    between atoms: _51  and  _54
REMARK   24  A    between atoms: _54  and  _55
REMARK   25  A    between atoms: _58  and  _60
REMARK   26  A    between atoms: _60  and  _61
REMARK   27  A    between atoms: _60  and  _63
REMARK   28  A    between atoms: _63  and  _64
REMARK   29  A    between atoms: _64  and  _65
REMARK   30  A    between atoms: _65  and  _66
REMARK   31  A    between atoms: _66  and  _67
REMARK   32  A    between atoms: _72  and  _73
REMARK   33  A    between atoms: _78  and  _80
REMARK   34  A    between atoms: _80  and  _81
REMARK   35  A    between atoms: _80  and  _83
REMARK   36  A    between atoms: _86  and  _88
REMARK   37  A    between atoms: _88  and  _89
REMARK   38  A    between atoms: _88  and  _91
REMARK   39  A    between atoms: _91  and  _92
REMARK   40  A    between atoms: _97  and  _99
REMARK   41  A    between atoms: _99  and  _100
REMARK   42  A    between atoms: _99  and  _102
REMARK   43  A    between atoms: _102  and  _103
REMARK   44  A    between atoms: _106  and  _108
REMARK   45  A    between atoms: _108  and  _109
REMARK   46  A    between atoms: _108  and  _111
REMARK   47  A    between atoms: _111  and  _112
REMARK   48  A    between atoms: _118  and  _120
REMARK   49  A    between atoms: _120  and  _121
REMARK   50  A    between atoms: _120  and  _123
REMARK   51  A    between atoms: _123  and  _124
REMARK   52  A    between atoms: _124  and  _125
REMARK   53  A    between atoms: _125  and  _126
REMARK   54  A    between atoms: _126  and  _127
REMARK   55  A    between atoms: _131  and  _133
REMARK   56  A    between atoms: _133  and  _134
REMARK   57  A    between atoms: _133  and  _136
REMARK   58  A    between atoms: _136  and  _137
REMARK   59  A    between atoms: _142  and  _144
REMARK   60  A    between atoms: _144  and  _145
REMARK   61  A    between atoms: _144  and  _147
REMARK   62  A    between atoms: _147  and  _148
REMARK   63  A    between atoms: _151  and  _153
REMARK   64  A    between atoms: _153  and  _154
REMARK   65  A    between atoms: _153  and  _156
REMARK   66  A    between atoms: _156  and  _157
REMARK   67  A    between atoms: _160  and  _162
REMARK   68  A    between atoms: _162  and  _163
REMARK   69  A    between atoms: _162  and  _165
REMARK   70  A    between atoms: _165  and  _166
REMARK   71  A    between atoms: _169  and  _171
REMARK   72  A    between atoms: _171  and  _172
REMARK   73  A    between atoms: _171  and  _174
REMARK   74  A    between atoms: _176  and  _178
REMARK   75  A    between atoms: _178  and  _179
REMARK   76  A    between atoms: _178  and  _181
REMARK   77  A    between atoms: _181  and  _182
REMARK   78  A    between atoms: _182  and  _183
REMARK   79  A    between atoms: _183  and  _184
REMARK   80  A    between atoms: _193  and  _195
REMARK   81  A    between atoms: _195  and  _196
REMARK   82  A    between atoms: _195  and  _198
REMARK   83  A    between atoms: _198  and  _199
REMARK   84  A    between atoms: _199  and  _200
REMARK   85  A    between atoms: _200  and  _201
REMARK   86  A    between atoms: _201  and  _202
REMARK   87  A    between atoms: _206  and  _208
REMARK   88  A    between atoms: _208  and  _209
REMARK   89  A    between atoms: _208  and  _211
REMARK   90  A    between atoms: _211  and  _212
REMARK   91  A    between atoms: _215  and  _217
REMARK   92  A    between atoms: _217  and  _218
REMARK   93  A    between atoms: _217  and  _220
REMARK   94  A    between atoms: _223  and  _225
REMARK   95  A    between atoms: _225  and  _226
REMARK   96  A    between atoms: _225  and  _228
REMARK   97  A    between atoms: _228  and  _229
REMARK   98  A    between atoms: _234  and  _236
REMARK   99  A    between atoms: _236  and  _237
REMARK  100  A    between atoms: _236  and  _239
REMARK  101  A    between atoms: _239  and  _240
REMARK  102  A    between atoms: _246  and  _248
REMARK  103  A    between atoms: _248  and  _249
REMARK  104  A    between atoms: _248  and  _251
REMARK  105  A    between atoms: _251  and  _252
REMARK  106  A    between atoms: _255  and  _257
REMARK  107  A    between atoms: _257  and  _258
REMARK  108  A    between atoms: _261  and  _263
REMARK  109  A    between atoms: _263  and  _264
REMARK  110  A    between atoms: _263  and  _266
REMARK  111  A    between atoms: _266  and  _267
REMARK  112  A    between atoms: _269  and  _271
REMARK  113  A    between atoms: _271  and  _272
REMARK  114  A    between atoms: _271  and  _274
REMARK                            x       y       z     vdW  Elec       q    Type
REMARK                         _______ _______ _______ _____ _____    ______ ____
ROOT
ATOM      1  CA  ILE A   1      21.394  19.628  36.057  0.00  0.00    +0.133 C 
ENDROOT
BRANCH   1   2
ATOM      2  N   ILE A   1      21.673  20.702  35.116  0.00  0.00    -0.239 NA
ATOM      3  H   ILE A   1      21.063  20.780  34.277  0.00  0.00    +0.142 HD
ENDBRANCH   1   2
BRANCH   1   4
ATOM      4  CB  ILE A   1      20.058  19.759  36.815  0.00  0.00    +0.023 C 
ATOM      5  CG2 ILE A   1      19.933  18.645  37.842  0.00  0.00    +0.002 C 
BRANCH   4   6
ATOM      6  CG1 ILE A   1      20.035  21.106  37.567  0.00  0.00    +0.002 C 
ATOM      7  CD1 ILE A   1      18.756  21.356  38.319  0.00  0.00    +0.000 C 
ENDBRANCH   4   6
ENDBRANCH   1   4
BRANCH   1   8
ATOM      8  C   ILE A   1      21.351  18.326  35.259  0.00  0.00    +0.224 C 
ATOM      9  O   ILE A   1      20.550  18.178  34.318  0.00  0.00    -0.287 OA
ENDBRANCH   1   8
TORSDOF 4
REMARK  Name = ../refined-set-2016/1rnm/1rnm_pocket.pdb
REMARK  114 active torsions:
REMARK  status: ('A' for Active; 'I' for Inactive)
REMARK    1  A    between atoms: _1  and  _3
REMARK    2  A    between atoms: _3  and  _4
REMARK    3  A    between atoms: _3  and  _6
REMARK    4  A    between atoms: _6  and  _7
REMARK    5  A    between atoms: _7  and  _8
REMARK    6  A    between atoms: _8  and  _9
REMARK    7  A    between atoms: _9  and  _10
REMARK    8  A    between atoms: _14  and  _16
REMARK    9  A    between atoms: _16  and  _17
REMARK   10  A    between atoms: _16  and  _19
REMARK   11  A    between atoms: _19  and  _20
REMARK   12  A    between atoms: _26  and  _28
REMARK   13  A    between atoms: _28  and  _29
REMARK   14  A    between atoms: _28  and  _31
REMARK   15  A    between atoms: _31  and  _32
REMARK   16  A    between atoms: _32  and  _33
REMARK   17  A    between atoms: _38  and  _40
REMARK   18  A    between atoms: _40  and  _41
REMARK   19  A    between atoms: _40  and  _43
REMARK   20  A    between atoms: _43  and  _44
REMARK   21  A    between atoms: _49  and  _51
REMARK   22  A    between atoms: _51  and  _52
REMARK   23  A    between atoms: _51  and  _54
REMARK   24  A    between atoms: _54  and  _55
REMARK   25  A    between atoms: _58  and  _60
REMARK   26  A    between atoms: _60  and  _61
REMARK   27  A    between atoms: _60  and  _63
REMARK   28  A    between atoms: _63  and  _64
REMARK   29  A    between atoms: _64  and  _65
REMARK   30  A    between atoms: _65  and  _66
REMARK   31  A    between atoms: _66  and  _67
REMARK   32  A    between atoms: _72  and  _73
REMARK   33  A    between atoms: _78  and  _80
REMARK   34  A    between atoms: _80  and  _81
REMARK   35  A    between atoms: _80  and  _83
REMARK   36  A    between atoms: _86  and  _88
REMARK   37  A    between atoms: _88  and  _89
REMARK   38  A    between atoms: _88  and  _91
REMARK   39  A    between atoms: _91  and  _92
REMARK   40  A    between atoms: _97  and  _99
REMARK   41  A    between atoms: _99  and  _100
REMARK   42  A    between atoms: _99  and  _102
REMARK   43  A    between atoms: _102  and  _103
REMARK   44  A    between atoms: _106  and  _108
REMARK   45  A    between atoms: _108  and  _109
REMARK   46  A    between atoms: _108  and  _111
REMARK   47  A    between atoms: _111  and  _112
REMARK   48  A    between atoms: _118  and  _120
REMARK   49  A    between atoms: _120  and  _121
REMARK   50  A    between atoms: _120  and  _123
REMARK   51  A    between atoms: _123  and  _124
REMARK   52  A    between atoms: _124  and  _125
REMARK   53  A    between atoms: _125  and  _126
REMARK   54  A    between atoms: _126  and  _127
REMARK   55  A    between atoms: _131  and  _133
REMARK   56  A    between atoms: _133  and  _134
REMARK   57  A    between atoms: _133  and  _136
REMARK   58  A    between atoms: _136  and  _137
REMARK   59  A    between atoms: _142  and  _144
REMARK   60  A    between atoms: _144  and  _145
REMARK   61  A    between atoms: _144  and  _147
REMARK   62  A    between atoms: _147  and  _148
REMARK   63  A    between atoms: _151  and  _153
REMARK   64  A    between atoms: _153  and  _154
REMARK   65  A    between atoms: _153  and  _156
REMARK   66  A    between atoms: _156  and  _157
REMARK   67  A    between atoms: _160  and  _162
REMARK   68  A    between atoms: _162  and  _163
REMARK   69  A    between atoms: _162  and  _165
REMARK   70  A    between atoms: _165  and  _166
REMARK   71  A    between atoms: _169  and  _171
REMARK   72  A    between atoms: _171  and  _172
REMARK   73  A    between atoms: _171  and  _174
REMARK   74  A    between atoms: _176  and  _178
REMARK   75  A    between atoms: _178  and  _179
REMARK   76  A    between atoms: _178  and  _181
REMARK   77  A    between atoms: _181  and  _182
REMARK   78  A    between atoms: _182  and  _183
REMARK   79  A    between atoms: _183  and  _184
REMARK   80  A    between atoms: _193  and  _195
REMARK   81  A    between atoms: _195  and  _196
REMARK   82  A    between atoms: _195  and  _198
REMARK   83  A    between atoms: _198  and  _199
REMARK   84  A    between atoms: _199  and  _200
REMARK   85  A    between atoms: _200  and  _201
REMARK   86  A    between atoms: _201  and  _202
REMARK   87  A    between atoms: _206  and  _208
REMARK   88  A    between atoms: _208  and  _209
REMARK   89  A    between atoms: _208  and  _211
REMARK   90  A    between atoms: _211  and  _212
REMARK   91  A    between atoms: _215  and  _217
REMARK   92  A    between atoms: _217  and  _218
REMARK   93  A    between atoms: _217  and  _220
REMARK   94  A    between atoms: _223  and  _225
REMARK   95  A    between atoms: _225  and  _226
REMARK   96  A    between atoms: _225  and  _228
REMARK   97  A    between atoms: _228  and  _229
REMARK   98  A    between atoms: _234  and  _236
REMARK   99  A    between atoms: _236  and  _237
REMARK  100  A    between atoms: _236  and  _239
REMARK  101  A    between atoms: _239  and  _240
REMARK  102  A    between atoms: _246  and  _248
REMARK  103  A    between atoms: _248  and  _249
REMARK  104  A    between atoms: _248  and  _251
REMARK  105  A    between atoms: _251  and  _252
REMARK  106  A    between atoms: _255  and  _257
REMARK  107  A    between atoms: _257  and  _258
REMARK  108  A    between atoms: _261  and  _263
REMARK  109  A    between atoms: _263  and  _264
REMARK  110  A    between atoms: _263  and  _266
REMARK  111  A    between atoms: _266  and  _267
REMARK  112  A    between atoms: _269  and  _271
REMARK  113  A    between atoms: _271  and  _272
REMARK  114  A    between atoms: _271  and  _274
REMARK                            x       y       z     vdW  Elec       q    Type
REMARK                         _______ _______ _______ _____ _____    ______ ____
ROOT
ATOM      1  C   PHE A   3      18.637  16.161  31.605  0.00  0.00    +0.241 C 
ATOM      2  N   ASP A   4      18.690  16.627  32.840  0.00  0.00    -0.297 N 
ATOM      3  H   ASP A   4      19.611  16.803  33.290  0.00  0.00    +0.150 HD
ATOM      4  O   PHE A   3      17.580  15.945  31.016  0.00  0.00    -0.273 OA
ENDROOT
BRANCH   2   5
ATOM      5  CA  ASP A   4      17.459  16.894  33.573  0.00  0.00    +0.160 C 
BRANCH   5   6
ATOM      6  C   ASP A   4      16.862  18.258  33.363  0.00  0.00    +0.241 C 
ATOM      7  N   ALA A   5      17.649  19.338  33.435  0.00  0.00    -0.297 N 
ATOM      8  H   ALA A   5      18.667  19.206  33.600  0.00  0.00    +0.150 HD
ATOM      9  O   ASP A   4      15.654  18.417  33.122  0.00  0.00    -0.273 OA
BRANCH   7  10
ATOM     10  CA  ALA A   5      17.134  20.685  33.291  0.00  0.00    +0.149 C 
ATOM     11  CB  ALA A   5      16.350  21.043  34.579  0.00  0.00    +0.031 C 
BRANCH  10  12
ATOM     12  C   ALA A   5      18.243  21.719  33.278  0.00  0.00    +0.241 C 
ATOM     13  O   ALA A   5      19.402  21.430  33.540  0.00  0.00    -0.273 OA
ATOM     14  N   SER A   6      17.850  22.936  32.952  0.00  0.00    -0.295 N 
ATOM     15  H   SER A   6      16.858  23.095  32.685  0.00  0.00    +0.150 HD
BRANCH  14  16
ATOM     16  CA  SER A   6      18.775  24.061  32.958  0.00  0.00    +0.178 C 
BRANCH  16  17
ATOM     17  C   SER A   6      18.119  25.062  33.939  0.00  0.00    +0.243 C 
ATOM     18  N   VAL A   7      18.907  25.641  34.828  0.00  0.00    -0.295 N 
ATOM     19  H   VAL A   7      19.923  25.418  34.835  0.00  0.00    +0.150 HD
ATOM     20  O   SER A   6      16.898  25.221  33.932  0.00  0.00    -0.273 OA
BRANCH  18  21
ATOM     21  CA  VAL A   7      18.375  26.585  35.796  0.00  0.00    +0.176 C 
BRANCH  21  22
ATOM     22  C   VAL A   7      19.051  27.938  35.665  0.00  0.00    +0.382 C 
ATOM     23  OXT VAL A   7      20.305  28.029  35.599  0.00  0.00    -0.244 OA
ATOM     24  O   VAL A   7      18.313  28.955  35.573  0.00  0.00    -0.244 OA
ENDBRANCH  21  22
BRANCH  21  25
ATOM     25  CB  VAL A   7      18.526  26.017  37.221  0.00  0.00    +0.029 C 
ATOM     26  CG2 VAL A   7      17.942  27.006  38.215  0.00  0.00    +0.002 C 
ATOM     27  CG1 VAL A   7      17.663  24.772  37.293  0.00  0.00    +0.002 C 
ENDBRANCH  21  25
ENDBRANCH  18  21
ENDBRANCH  16  17
BRANCH  16  28
ATOM     28  CB  SER A   6      19.064  24.641  31.611  0.00  0.00    +0.166 C 
BRANCH  28  29
ATOM     29  OG  SER A   6      17.932  25.249  31.016  0.00  0.00    -0.380 OA
ATOM     30  H   SER A   6      17.216  24.574  30.906  0.00  0.00    +0.211 HD
ENDBRANCH  28  29
ENDBRANCH  16  28
ENDBRANCH  14  16
ENDBRANCH  10  12
ENDBRANCH   7  10
ENDBRANCH   5   6
BRANCH   5  31
ATOM     31  CB  ASP A   4      17.712  16.627  35.070  0.00  0.00    +0.143 C 
BRANCH  31  32
ATOM     32  CG  ASP A   4      16.435  16.417  35.854  0.00  0.00    +0.367 C 
ATOM     33  OD2 ASP A   4      16.061  17.303  36.645  0.00  0.00    -0.246 OA
ATOM     34  OD1 ASP A   4      15.766  15.382  35.658  0.00  0.00    -0.246 OA
ENDBRANCH  31  32
ENDBRANCH   5  31
ENDBRANCH   2   5
BRANCH   1  35
ATOM     35  CA  PHE A   3      19.966  15.837  30.892  0.00  0.00    +0.153 C 
BRANCH  35  38
ATOM     36  C   HIS A   2      20.609  13.586  31.539  0.00  0.00    +0.241 C 
ATOM     37  O   HIS A   2      21.275  14.035  32.487  0.00  0.00    -0.273 OA
ATOM     38  N   PHE A   3      19.986  14.382  30.689  0.00  0.00    -0.297 N 
ATOM     39  H   PHE A   3      19.503  13.973  29.864  0.00  0.00    +0.150 HD
BRANCH  36  40
ATOM     40  CA  HIS A   2      20.586  12.091  31.330  0.00  0.00    +0.155 C 
BRANCH  40  42
ATOM     41  C   VAL A   1      22.312  10.409  31.055  0.00  0.00    +0.238 C 
ATOM     42  N   HIS A   2      21.889  11.494  31.696  0.00  0.00    -0.297 N 
ATOM     43  H   HIS A   2      22.469  11.919  32.448  0.00  0.00    +0.150 HD
ATOM     44  O   VAL A   1      21.613   9.959  30.147  0.00  0.00    -0.274 OA
BRANCH  41  45
ATOM     45  CA  VAL A   1      23.635   9.744  31.382  0.00  0.00    +0.145 C 
BRANCH  45  46
ATOM     46  CB  VAL A   1      23.392   8.357  31.984  0.00  0.00    +0.025 C 
ATOM     47  CG2 VAL A   1      22.726   8.453  33.357  0.00  0.00    +0.002 C 
ATOM     48  CG1 VAL A   1      24.704   7.595  32.147  0.00  0.00    +0.002 C 
ENDBRANCH  45  46
BRANCH  45  49
ATOM     49  N   VAL A   1      24.422  10.630  32.213  0.00  0.00    -0.238 NA
ATOM     50  H   VAL A   1      24.019  10.968  33.110  0.00  0.00    +0.142 HD
ENDBRANCH  45  49
ENDBRANCH  41  45
ENDBRANCH  40  42
BRANCH  40  51
ATOM     51  CB  HIS A   2      19.487  11.415  32.160  0.00  0.00    +0.076 C 
BRANCH  51  52
ATOM     52  CG  HIS A   2      18.286  12.233  32.481  0.00  0.00    +0.082 A 
ATOM     53  CD2 HIS A   2      17.977  12.961  33.599  0.00  0.00    +0.115 A 
ATOM     54  NE2 HIS A   2      16.763  13.563  33.390  0.00  0.00    -0.221 NA
ATOM     55  CE1 HIS A   2      16.294  13.228  32.187  0.00  0.00    +0.199 A 
ATOM     56  ND1 HIS A   2      17.196  12.415  31.624  0.00  0.00    -0.227 NA
ENDBRANCH  51  52
ENDBRANCH  40  51
ENDBRANCH  36  40
ENDBRANCH  35  38
BRANCH  35  57
ATOM     57  CB  PHE A   3      20.041  16.638  29.611  0.00  0.00    +0.055 C 
BRANCH  57  58
ATOM     58  CG  PHE A   3      20.301  18.099  29.853  0.00  0.00    -0.020 A 
ATOM     59  CD2 PHE A   3      19.244  18.974  30.121  0.00  0.00    -0.004 A 
ATOM     60  CE2 PHE A   3      19.490  20.321  30.323  0.00  0.00    -0.000 A 
ATOM     61  CZ  PHE A   3      20.787  20.804  30.291  0.00  0.00    -0.000 A 
ATOM     62  CE1 PHE A   3      21.840  19.946  30.042  0.00  0.00    -0.000 A 
ATOM     63  CD1 PHE A   3      21.587  18.599  29.833  0.00  0.00    -0.004 A 
ENDBRANCH  57  58
ENDBRANCH  35  57
ENDBRANCH   1  35
TORSDOF 24
REMARK  Name = ../refined-set-2016/1rnm/1rnm_pocket.pdb
REMARK  114 active torsions:
REMARK  status: ('A' for Active; 'I' for Inactive)
REMARK    1  A    between atoms: _1  and  _3
REMARK    2  A    between atoms: _3  and  _4
REMARK    3  A    between atoms: _3  and  _6
REMARK    4  A    between atoms: _6  and  _7
REMARK    5  A    between atoms: _7  and  _8
REMARK    6  A    between atoms: _8  and  _9
REMARK    7  A    between atoms: _9  and  _10
REMARK    8  A    between atoms: _14  and  _16
REMARK    9  A    between atoms: _16  and  _17
REMARK   10  A    between atoms: _16  and  _19
REMARK   11  A    between atoms: _19  and  _20
REMARK   12  A    between atoms: _26  and  _28
REMARK   13  A    between atoms: _28  and  _29
REMARK   14  A    between atoms: _28  and  _31
REMARK   15  A    between atoms: _31  and  _32
REMARK   16  A    between atoms: _32  and  _33
REMARK   17  A    between atoms: _38  and  _40
REMARK   18  A    between atoms: _40  and  _41
REMARK   19  A    between atoms: _40  and  _43
REMARK   20  A    between atoms: _43  and  _44
REMARK   21  A    between atoms: _49  and  _51
REMARK   22  A    between atoms: _51  and  _52
REMARK   23  A    between atoms: _51  and  _54
REMARK   24  A    between atoms: _54  and  _55
REMARK   25  A    between atoms: _58  and  _60
REMARK   26  A    between atoms: _60  and  _61
REMARK   27  A    between atoms: _60  and  _63
REMARK   28  A    between atoms: _63  and  _64
REMARK   29  A    between atoms: _64  and  _65
REMARK   30  A    between atoms: _65  and  _66
REMARK   31  A    between atoms: _66  and  _67
REMARK   32  A    between atoms: _72  and  _73
REMARK   33  A    between atoms: _78  and  _80
REMARK   34  A    between atoms: _80  and  _81
REMARK   35  A    between atoms: _80  and  _83
REMARK   36  A    between atoms: _86  and  _88
REMARK   37  A    between atoms: _88  and  _89
REMARK   38  A    between atoms: _88  and  _91
REMARK   39  A    between atoms: _91  and  _92
REMARK   40  A    between atoms: _97  and  _99
REMARK   41  A    between atoms: _99  and  _100
REMARK   42  A    between atoms: _99  and  _102
REMARK   43  A    between atoms: _102  and  _103
REMARK   44  A    between atoms: _106  and  _108
REMARK   45  A    between atoms: _108  and  _109
REMARK   46  A    between atoms: _108  and  _111
REMARK   47  A    between atoms: _111  and  _112
REMARK   48  A    between atoms: _118  and  _120
REMARK   49  A    between atoms: _120  and  _121
REMARK   50  A    between atoms: _120  and  _123
REMARK   51  A    between atoms: _123  and  _124
REMARK   52  A    between atoms: _124  and  _125
REMARK   53  A    between atoms: _125  and  _126
REMARK   54  A    between atoms: _126  and  _127
REMARK   55  A    between atoms: _131  and  _133
REMARK   56  A    between atoms: _133  and  _134
REMARK   57  A    between atoms: _133  and  _136
REMARK   58  A    between atoms: _136  and  _137
REMARK   59  A    between atoms: _142  and  _144
REMARK   60  A    between atoms: _144  and  _145
REMARK   61  A    between atoms: _144  and  _147
REMARK   62  A    between atoms: _147  and  _148
REMARK   63  A    between atoms: _151  and  _153
REMARK   64  A    between atoms: _153  and  _154
REMARK   65  A    between atoms: _153  and  _156
REMARK   66  A    between atoms: _156  and  _157
REMARK   67  A    between atoms: _160  and  _162
REMARK   68  A    between atoms: _162  and  _163
REMARK   69  A    between atoms: _162  and  _165
REMARK   70  A    between atoms: _165  and  _166
REMARK   71  A    between atoms: _169  and  _171
REMARK   72  A    between atoms: _171  and  _172
REMARK   73  A    between atoms: _171  and  _174
REMARK   74  A    between atoms: _176  and  _178
REMARK   75  A    between atoms: _178  and  _179
REMARK   76  A    between atoms: _178  and  _181
REMARK   77  A    between atoms: _181  and  _182
REMARK   78  A    between atoms: _182  and  _183
REMARK   79  A    between atoms: _183  and  _184
REMARK   80  A    between atoms: _193  and  _195
REMARK   81  A    between atoms: _195  and  _196
REMARK   82  A    between atoms: _195  and  _198
REMARK   83  A    between atoms: _198  and  _199
REMARK   84  A    between atoms: _199  and  _200
REMARK   85  A    between atoms: _200  and  _201
REMARK   86  A    between atoms: _201  and  _202
REMARK   87  A    between atoms: _206  and  _208
REMARK   88  A    between atoms: _208  and  _209
REMARK   89  A    between atoms: _208  and  _211
REMARK   90  A    between atoms: _211  and  _212
REMARK   91  A    between atoms: _215  and  _217
REMARK   92  A    between atoms: _217  and  _218
REMARK   93  A    between atoms: _217  and  _220
REMARK   94  A    between atoms: _223  and  _225
REMARK   95  A    between atoms: _225  and  _226
REMARK   96  A    between atoms: _225  and  _228
REMARK   97  A    between atoms: _228  and  _229
REMARK   98  A    between atoms: _234  and  _236
REMARK   99  A    between atoms: _236  and  _237
REMARK  100  A    between atoms: _236  and  _239
REMARK  101  A    between atoms: _239  and  _240
REMARK  102  A    between atoms: _246  and  _248
REMARK  103  A    between atoms: _248  and  _249
REMARK  104  A    between atoms: _248  and  _251
REMARK  105  A    between atoms: _251  and  _252
REMARK  106  A    between atoms: _255  and  _257
REMARK  107  A    between atoms: _257  and  _258
REMARK  108  A    between atoms: _261  and  _263
REMARK  109  A    between atoms: _263  and  _264
REMARK  110  A    between atoms: _263  and  _266
REMARK  111  A    between atoms: _266  and  _267
REMARK  112  A    between atoms: _269  and  _271
REMARK  113  A    between atoms: _271  and  _272
REMARK  114  A    between atoms: _271  and  _274
REMARK                            x       y       z     vdW  Elec       q    Type
REMARK                         _______ _______ _______ _____ _____    ______ ____
ROOT
ATOM      1  O   HOH     1      17.423  24.072  28.650  0.00  0.00    +0.000 OA
ENDROOT
TORSDOF 0
REMARK  Name = ../refined-set-2016/1rnm/1rnm_pocket.pdb
REMARK  114 active torsions:
REMARK  status: ('A' for Active; 'I' for Inactive)
REMARK    1  A    between atoms: _1  and  _3
REMARK    2  A    between atoms: _3  and  _4
REMARK    3  A    between atoms: _3  and  _6
REMARK    4  A    between atoms: _6  and  _7
REMARK    5  A    between atoms: _7  and  _8
REMARK    6  A    between atoms: _8  and  _9
REMARK    7  A    between atoms: _9  and  _10
REMARK    8  A    between atoms: _14  and  _16
REMARK    9  A    between atoms: _16  and  _17
REMARK   10  A    between atoms: _16  and  _19
REMARK   11  A    between atoms: _19  and  _20
REMARK   12  A    between atoms: _26  and  _28
REMARK   13  A    between atoms: _28  and  _29
REMARK   14  A    between atoms: _28  and  _31
REMARK   15  A    between atoms: _31  and  _32
REMARK   16  A    between atoms: _32  and  _33
REMARK   17  A    between atoms: _38  and  _40
REMARK   18  A    between atoms: _40  and  _41
REMARK   19  A    between atoms: _40  and  _43
REMARK   20  A    between atoms: _43  and  _44
REMARK   21  A    between atoms: _49  and  _51
REMARK   22  A    between atoms: _51  and  _52
REMARK   23  A    between atoms: _51  and  _54
REMARK   24  A    between atoms: _54  and  _55
REMARK   25  A    between atoms: _58  and  _60
REMARK   26  A    between atoms: _60  and  _61
REMARK   27  A    between atoms: _60  and  _63
REMARK   28  A    between atoms: _63  and  _64
REMARK   29  A    between atoms: _64  and  _65
REMARK   30  A    between atoms: _65  and  _66
REMARK   31  A    between atoms: _66  and  _67
REMARK   32  A    between atoms: _72  and  _73
REMARK   33  A    between atoms: _78  and  _80
REMARK   34  A    between atoms: _80  and  _81
REMARK   35  A    between atoms: _80  and  _83
REMARK   36  A    between atoms: _86  and  _88
REMARK   37  A    between atoms: _88  and  _89
REMARK   38  A    between atoms: _88  and  _91
REMARK   39  A    between atoms: _91  and  _92
REMARK   40  A    between atoms: _97  and  _99
REMARK   41  A    between atoms: _99  and  _100
REMARK   42  A    between atoms: _99  and  _102
REMARK   43  A    between atoms: _102  and  _103
REMARK   44  A    between atoms: _106  and  _108
REMARK   45  A    between atoms: _108  and  _109
REMARK   46  A    between atoms: _108  and  _111
REMARK   47  A    between atoms: _111  and  _112
REMARK   48  A    between atoms: _118  and  _120
REMARK   49  A    between atoms: _120  and  _121
REMARK   50  A    between atoms: _120  and  _123
REMARK   51  A    between atoms: _123  and  _124
REMARK   52  A    between atoms: _124  and  _125
REMARK   53  A    between atoms: _125  and  _126
REMARK   54  A    between atoms: _126  and  _127
REMARK   55  A    between atoms: _131  and  _133
REMARK   56  A    between atoms: _133  and  _134
REMARK   57  A    between atoms: _133  and  _136
REMARK   58  A    between atoms: _136  and  _137
REMARK   59  A    between atoms: _142  and  _144
REMARK   60  A    between atoms: _144  and  _145
REMARK   61  A    between atoms: _144  and  _147
REMARK   62  A    between atoms: _147  and  _148
REMARK   63  A    between atoms: _151  and  _153
REMARK   64  A    between atoms: _153  and  _154
REMARK   65  A    between atoms: _153  and  _156
REMARK   66  A    between atoms: _156  and  _157
REMARK   67  A    between atoms: _160  and  _162
REMARK   68  A    between atoms: _162  and  _163
REMARK   69  A    between atoms: _162  and  _165
REMARK   70  A    between atoms: _165  and  _166
REMARK   71  A    between atoms: _169  and  _171
REMARK   72  A    between atoms: _171  and  _172
REMARK   73  A    between atoms: _171  and  _174
REMARK   74  A    between atoms: _176  and  _178
REMARK   75  A    between atoms: _178  and  _179
REMARK   76  A    between atoms: _178  and  _181
REMARK   77  A    between atoms: _181  and  _182
REMARK   78  A    between atoms: _182  and  _183
REMARK   79  A    between atoms: _183  and  _184
REMARK   80  A    between atoms: _193  and  _195
REMARK   81  A    between atoms: _195  and  _196
REMARK   82  A    between atoms: _195  and  _198
REMARK   83  A    between atoms: _198  and  _199
REMARK   84  A    between atoms: _199  and  _200
REMARK   85  A    between atoms: _200  and  _201
REMARK   86  A    between atoms: _201  and  _202
REMARK   87  A    between atoms: _206  and  _208
REMARK   88  A    between atoms: _208  and  _209
REMARK   89  A    between atoms: _208  and  _211
REMARK   90  A    between atoms: _211  and  _212
REMARK   91  A    between atoms: _215  and  _217
REMARK   92  A    between atoms: _217  and  _218
REMARK   93  A    between atoms: _217  and  _220
REMARK   94  A    between atoms: _223  and  _225
REMARK   95  A    between atoms: _225  and  _226
REMARK   96  A    between atoms: _225  and  _228
REMARK   97  A    between atoms: _228  and  _229
REMARK   98  A    between atoms: _234  and  _236
REMARK   99  A    between atoms: _236  and  _237
REMARK  100  A    between atoms: _236  and  _239
REMARK  101  A    between atoms: _239  and  _240
REMARK  102  A    between atoms: _246  and  _248
REMARK  103  A    between atoms: _248  and  _249
REMARK  104  A    between atoms: _248  and  _251
REMARK  105  A    between atoms: _251  and  _252
REMARK  106  A    between atoms: _255  and  _257
REMARK  107  A    between atoms: _257  and  _258
REMARK  108  A    between atoms: _261  and  _263
REMARK  109  A    between atoms: _263  and  _264
REMARK  110  A    between atoms: _263  and  _266
REMARK  111  A    between atoms: _266  and  _267
REMARK  112  A    between atoms: _269  and  _271
REMARK  113  A    between atoms: _271  and  _272
REMARK  114  A    between atoms: _271  and  _274
REMARK                            x       y       z     vdW  Elec       q    Type
REMARK                         _______ _______ _______ _____ _____    ______ ____
ROOT
ATOM      1  O   HOH     1      11.756  16.223  24.864  0.00  0.00    +0.000 OA
ENDROOT
TORSDOF 0
REMARK  Name = ../refined-set-2016/1rnm/1rnm_pocket.pdb
REMARK  114 active torsions:
REMARK  status: ('A' for Active; 'I' for Inactive)
REMARK    1  A    between atoms: _1  and  _3
REMARK    2  A    between atoms: _3  and  _4
REMARK    3  A    between atoms: _3  and  _6
REMARK    4  A    between atoms: _6  and  _7
REMARK    5  A    between atoms: _7  and  _8
REMARK    6  A    between atoms: _8  and  _9
REMARK    7  A    between atoms: _9  and  _10
REMARK    8  A    between atoms: _14  and  _16
REMARK    9  A    between atoms: _16  and  _17
REMARK   10  A    between atoms: _16  and  _19
REMARK   11  A    between atoms: _19  and  _20
REMARK   12  A    between atoms: _26  and  _28
REMARK   13  A    between atoms: _28  and  _29
REMARK   14  A    between atoms: _28  and  _31
REMARK   15  A    between atoms: _31  and  _32
REMARK   16  A    between atoms: _32  and  _33
REMARK   17  A    between atoms: _38  and  _40
REMARK   18  A    between atoms: _40  and  _41
REMARK   19  A    between atoms: _40  and  _43
REMARK   20  A    between atoms: _43  and  _44
REMARK   21  A    between atoms: _49  and  _51
REMARK   22  A    between atoms: _51  and  _52
REMARK   23  A    between atoms: _51  and  _54
REMARK   24  A    between atoms: _54  and  _55
REMARK   25  A    between atoms: _58  and  _60
REMARK   26  A    between atoms: _60  and  _61
REMARK   27  A    between atoms: _60  and  _63
REMARK   28  A    between atoms: _63  and  _64
REMARK   29  A    between atoms: _64  and  _65
REMARK   30  A    between atoms: _65  and  _66
REMARK   31  A    between atoms: _66  and  _67
REMARK   32  A    between atoms: _72  and  _73
REMARK   33  A    between atoms: _78  and  _80
REMARK   34  A    between atoms: _80  and  _81
REMARK   35  A    between atoms: _80  and  _83
REMARK   36  A    between atoms: _86  and  _88
REMARK   37  A    between atoms: _88  and  _89
REMARK   38  A    between atoms: _88  and  _91
REMARK   39  A    between atoms: _91  and  _92
REMARK   40  A    between atoms: _97  and  _99
REMARK   41  A    between atoms: _99  and  _100
REMARK   42  A    between atoms: _99  and  _102
REMARK   43  A    between atoms: _102  and  _103
REMARK   44  A    between atoms: _106  and  _108
REMARK   45  A    between atoms: _108  and  _109
REMARK   46  A    between atoms: _108  and  _111
REMARK   47  A    between atoms: _111  and  _112
REMARK   48  A    between atoms: _118  and  _120
REMARK   49  A    between atoms: _120  and  _121
REMARK   50  A    between atoms: _120  and  _123
REMARK   51  A    between atoms: _123  and  _124
REMARK   52  A    between atoms: _124  and  _125
REMARK   53  A    between atoms: _125  and  _126
REMARK   54  A    between atoms: _126  and  _127
REMARK   55  A    between atoms: _131  and  _133
REMARK   56  A    between atoms: _133  and  _134
REMARK   57  A    between atoms: _133  and  _136
REMARK   58  A    between atoms: _136  and  _137
REMARK   59  A    between atoms: _142  and  _144
REMARK   60  A    between atoms: _144  and  _145
REMARK   61  A    between atoms: _144  and  _147
REMARK   62  A    between atoms: _147  and  _148
REMARK   63  A    between atoms: _151  and  _153
REMARK   64  A    between atoms: _153  and  _154
REMARK   65  A    between atoms: _153  and  _156
REMARK   66  A    between atoms: _156  and  _157
REMARK   67  A    between atoms: _160  and  _162
REMARK   68  A    between atoms: _162  and  _163
REMARK   69  A    between atoms: _162  and  _165
REMARK   70  A    between atoms: _165  and  _166
REMARK   71  A    between atoms: _169  and  _171
REMARK   72  A    between atoms: _171  and  _172
REMARK   73  A    between atoms: _171  and  _174
REMARK   74  A    between atoms: _176  and  _178
REMARK   75  A    between atoms: _178  and  _179
REMARK   76  A    between atoms: _178  and  _181
REMARK   77  A    between atoms: _181  and  _182
REMARK   78  A    between atoms: _182  and  _183
REMARK   79  A    between atoms: _183  and  _184
REMARK   80  A    between atoms: _193  and  _195
REMARK   81  A    between atoms: _195  and  _196
REMARK   82  A    between atoms: _195  and  _198
REMARK   83  A    between atoms: _198  and  _199
REMARK   84  A    between atoms: _199  and  _200
REMARK   85  A    between atoms: _200  and  _201
REMARK   86  A    between atoms: _201  and  _202
REMARK   87  A    between atoms: _206  and  _208
REMARK   88  A    between atoms: _208  and  _209
REMARK   89  A    between atoms: _208  and  _211
REMARK   90  A    between atoms: _211  and  _212
REMARK   91  A    between atoms: _215  and  _217
REMARK   92  A    between atoms: _217  and  _218
REMARK   93  A    between atoms: _217  and  _220
REMARK   94  A    between atoms: _223  and  _225
REMARK   95  A    between atoms: _225  and  _226
REMARK   96  A    between atoms: _225  and  _228
REMARK   97  A    between atoms: _228  and  _229
REMARK   98  A    between atoms: _234  and  _236
REMARK   99  A    between atoms: _236  and  _237
REMARK  100  A    between atoms: _236  and  _239
REMARK  101  A    between atoms: _239  and  _240
REMARK  102  A    between atoms: _246  and  _248
REMARK  103  A    between atoms: _248  and  _249
REMARK  104  A    between atoms: _248  and  _251
REMARK  105  A    between atoms: _251  and  _252
REMARK  106  A    between atoms: _255  and  _257
REMARK  107  A    between atoms: _257  and  _258
REMARK  108  A    between atoms: _261  and  _263
REMARK  109  A    between atoms: _263  and  _264
REMARK  110  A    between atoms: _263  and  _266
REMARK  111  A    between atoms: _266  and  _267
REMARK  112  A    between atoms: _269  and  _271
REMARK  113  A    between atoms: _271  and  _272
REMARK  114  A    between atoms: _271  and  _274
REMARK                            x       y       z     vdW  Elec       q    Type
REMARK                         _______ _______ _______ _____ _____    ______ ____
ROOT
ATOM      1  O   HOH     1      20.947  11.295  26.773  0.00  0.00    +0.000 OA
ENDROOT
TORSDOF 0
REMARK  Name = ../refined-set-2016/1rnm/1rnm_pocket.pdb
REMARK  114 active torsions:
REMARK  status: ('A' for Active; 'I' for Inactive)
REMARK    1  A    between atoms: _1  and  _3
REMARK    2  A    between atoms: _3  and  _4
REMARK    3  A    between atoms: _3  and  _6
REMARK    4  A    between atoms: _6  and  _7
REMARK    5  A    between atoms: _7  and  _8
REMARK    6  A    between atoms: _8  and  _9
REMARK    7  A    between atoms: _9  and  _10
REMARK    8  A    between atoms: _14  and  _16
REMARK    9  A    between atoms: _16  and  _17
REMARK   10  A    between atoms: _16  and  _19
REMARK   11  A    between atoms: _19  and  _20
REMARK   12  A    between atoms: _26  and  _28
REMARK   13  A    between atoms: _28  and  _29
REMARK   14  A    between atoms: _28  and  _31
REMARK   15  A    between atoms: _31  and  _32
REMARK   16  A    between atoms: _32  and  _33
REMARK   17  A    between atoms: _38  and  _40
REMARK   18  A    between atoms: _40  and  _41
REMARK   19  A    between atoms: _40  and  _43
REMARK   20  A    between atoms: _43  and  _44
REMARK   21  A    between atoms: _49  and  _51
REMARK   22  A    between atoms: _51  and  _52
REMARK   23  A    between atoms: _51  and  _54
REMARK   24  A    between atoms: _54  and  _55
REMARK   25  A    between atoms: _58  and  _60
REMARK   26  A    between atoms: _60  and  _61
REMARK   27  A    between atoms: _60  and  _63
REMARK   28  A    between atoms: _63  and  _64
REMARK   29  A    between atoms: _64  and  _65
REMARK   30  A    between atoms: _65  and  _66
REMARK   31  A    between atoms: _66  and  _67
REMARK   32  A    between atoms: _72  and  _73
REMARK   33  A    between atoms: _78  and  _80
REMARK   34  A    between atoms: _80  and  _81
REMARK   35  A    between atoms: _80  and  _83
REMARK   36  A    between atoms: _86  and  _88
REMARK   37  A    between atoms: _88  and  _89
REMARK   38  A    between atoms: _88  and  _91
REMARK   39  A    between atoms: _91  and  _92
REMARK   40  A    between atoms: _97  and  _99
REMARK   41  A    between atoms: _99  and  _100
REMARK   42  A    between atoms: _99  and  _102
REMARK   43  A    between atoms: _102  and  _103
REMARK   44  A    between atoms: _106  and  _108
REMARK   45  A    between atoms: _108  and  _109
REMARK   46  A    between atoms: _108  and  _111
REMARK   47  A    between atoms: _111  and  _112
REMARK   48  A    between atoms: _118  and  _120
REMARK   49  A    between atoms: _120  and  _121
REMARK   50  A    between atoms: _120  and  _123
REMARK   51  A    between atoms: _123  and  _124
REMARK   52  A    between atoms: _124  and  _125
REMARK   53  A    between atoms: _125  and  _126
REMARK   54  A    between atoms: _126  and  _127
REMARK   55  A    between atoms: _131  and  _133
REMARK   56  A    between atoms: _133  and  _134
REMARK   57  A    between atoms: _133  and  _136
REMARK   58  A    between atoms: _136  and  _137
REMARK   59  A    between atoms: _142  and  _144
REMARK   60  A    between atoms: _144  and  _145
REMARK   61  A    between atoms: _144  and  _147
REMARK   62  A    between atoms: _147  and  _148
REMARK   63  A    between atoms: _151  and  _153
REMARK   64  A    between atoms: _153  and  _154
REMARK   65  A    between atoms: _153  and  _156
REMARK   66  A    between atoms: _156  and  _157
REMARK   67  A    between atoms: _160  and  _162
REMARK   68  A    between atoms: _162  and  _163
REMARK   69  A    between atoms: _162  and  _165
REMARK   70  A    between atoms: _165  and  _166
REMARK   71  A    between atoms: _169  and  _171
REMARK   72  A    between atoms: _171  and  _172
REMARK   73  A    between atoms: _171  and  _174
REMARK   74  A    between atoms: _176  and  _178
REMARK   75  A    between atoms: _178  and  _179
REMARK   76  A    between atoms: _178  and  _181
REMARK   77  A    between atoms: _181  and  _182
REMARK   78  A    between atoms: _182  and  _183
REMARK   79  A    between atoms: _183  and  _184
REMARK   80  A    between atoms: _193  and  _195
REMARK   81  A    between atoms: _195  and  _196
REMARK   82  A    between atoms: _195  and  _198
REMARK   83  A    between atoms: _198  and  _199
REMARK   84  A    between atoms: _199  and  _200
REMARK   85  A    between atoms: _200  and  _201
REMARK   86  A    between atoms: _201  and  _202
REMARK   87  A    between atoms: _206  and  _208
REMARK   88  A    between atoms: _208  and  _209
REMARK   89  A    between atoms: _208  and  _211
REMARK   90  A    between atoms: _211  and  _212
REMARK   91  A    between atoms: _215  and  _217
REMARK   92  A    between atoms: _217  and  _218
REMARK   93  A    between atoms: _217  and  _220
REMARK   94  A    between atoms: _223  and  _225
REMARK   95  A    between atoms: _225  and  _226
REMARK   96  A    between atoms: _225  and  _228
REMARK   97  A    between atoms: _228  and  _229
REMARK   98  A    between atoms: _234  and  _236
REMARK   99  A    between atoms: _236  and  _237
REMARK  100  A    between atoms: _236  and  _239
REMARK  101  A    between atoms: _239  and  _240
REMARK  102  A    between atoms: _246  and  _248
REMARK  103  A    between atoms: _248  and  _249
REMARK  104  A    between atoms: _248  and  _251
REMARK  105  A    between atoms: _251  and  _252
REMARK  106  A    between atoms: _255  and  _257
REMARK  107  A    between atoms: _257  and  _258
REMARK  108  A    between atoms: _261  and  _263
REMARK  109  A    between atoms: _263  and  _264
REMARK  110  A    between atoms: _263  and  _266
REMARK  111  A    between atoms: _266  and  _267
REMARK  112  A    between atoms: _269  and  _271
REMARK  113  A    between atoms: _271  and  _272
REMARK  114  A    between atoms: _271  and  _274
REMARK                            x       y       z     vdW  Elec       q    Type
REMARK                         _______ _______ _______ _____ _____    ______ ____
ROOT
ATOM      1  O   HOH     1      12.721  24.226  28.087  0.00  0.00    +0.000 OA
ENDROOT
TORSDOF 0
REMARK  Name = ../refined-set-2016/1rnm/1rnm_pocket.pdb
REMARK  114 active torsions:
REMARK  status: ('A' for Active; 'I' for Inactive)
REMARK    1  A    between atoms: _1  and  _3
REMARK    2  A    between atoms: _3  and  _4
REMARK    3  A    between atoms: _3  and  _6
REMARK    4  A    between atoms: _6  and  _7
REMARK    5  A    between atoms: _7  and  _8
REMARK    6  A    between atoms: _8  and  _9
REMARK    7  A    between atoms: _9  and  _10
REMARK    8  A    between atoms: _14  and  _16
REMARK    9  A    between atoms: _16  and  _17
REMARK   10  A    between atoms: _16  and  _19
REMARK   11  A    between atoms: _19  and  _20
REMARK   12  A    between atoms: _26  and  _28
REMARK   13  A    between atoms: _28  and  _29
REMARK   14  A    between atoms: _28  and  _31
REMARK   15  A    between atoms: _31  and  _32
REMARK   16  A    between atoms: _32  and  _33
REMARK   17  A    between atoms: _38  and  _40
REMARK   18  A    between atoms: _40  and  _41
REMARK   19  A    between atoms: _40  and  _43
REMARK   20  A    between atoms: _43  and  _44
REMARK   21  A    between atoms: _49  and  _51
REMARK   22  A    between atoms: _51  and  _52
REMARK   23  A    between atoms: _51  and  _54
REMARK   24  A    between atoms: _54  and  _55
REMARK   25  A    between atoms: _58  and  _60
REMARK   26  A    between atoms: _60  and  _61
REMARK   27  A    between atoms: _60  and  _63
REMARK   28  A    between atoms: _63  and  _64
REMARK   29  A    between atoms: _64  and  _65
REMARK   30  A    between atoms: _65  and  _66
REMARK   31  A    between atoms: _66  and  _67
REMARK   32  A    between atoms: _72  and  _73
REMARK   33  A    between atoms: _78  and  _80
REMARK   34  A    between atoms: _80  and  _81
REMARK   35  A    between atoms: _80  and  _83
REMARK   36  A    between atoms: _86  and  _88
REMARK   37  A    between atoms: _88  and  _89
REMARK   38  A    between atoms: _88  and  _91
REMARK   39  A    between atoms: _91  and  _92
REMARK   40  A    between atoms: _97  and  _99
REMARK   41  A    between atoms: _99  and  _100
REMARK   42  A    between atoms: _99  and  _102
REMARK   43  A    between atoms: _102  and  _103
REMARK   44  A    between atoms: _106  and  _108
REMARK   45  A    between atoms: _108  and  _109
REMARK   46  A    between atoms: _108  and  _111
REMARK   47  A    between atoms: _111  and  _112
REMARK   48  A    between atoms: _118  and  _120
REMARK   49  A    between atoms: _120  and  _121
REMARK   50  A    between atoms: _120  and  _123
REMARK   51  A    between atoms: _123  and  _124
REMARK   52  A    between atoms: _124  and  _125
REMARK   53  A    between atoms: _125  and  _126
REMARK   54  A    between atoms: _126  and  _127
REMARK   55  A    between atoms: _131  and  _133
REMARK   56  A    between atoms: _133  and  _134
REMARK   57  A    between atoms: _133  and  _136
REMARK   58  A    between atoms: _136  and  _137
REMARK   59  A    between atoms: _142  and  _144
REMARK   60  A    between atoms: _144  and  _145
REMARK   61  A    between atoms: _144  and  _147
REMARK   62  A    between atoms: _147  and  _148
REMARK   63  A    between atoms: _151  and  _153
REMARK   64  A    between atoms: _153  and  _154
REMARK   65  A    between atoms: _153  and  _156
REMARK   66  A    between atoms: _156  and  _157
REMARK   67  A    between atoms: _160  and  _162
REMARK   68  A    between atoms: _162  and  _163
REMARK   69  A    between atoms: _162  and  _165
REMARK   70  A    between atoms: _165  and  _166
REMARK   71  A    between atoms: _169  and  _171
REMARK   72  A    between atoms: _171  and  _172
REMARK   73  A    between atoms: _171  and  _174
REMARK   74  A    between atoms: _176  and  _178
REMARK   75  A    between atoms: _178  and  _179
REMARK   76  A    between atoms: _178  and  _181
REMARK   77  A    between atoms: _181  and  _182
REMARK   78  A    between atoms: _182  and  _183
REMARK   79  A    between atoms: _183  and  _184
REMARK   80  A    between atoms: _193  and  _195
REMARK   81  A    between atoms: _195  and  _196
REMARK   82  A    between atoms: _195  and  _198
REMARK   83  A    between atoms: _198  and  _199
REMARK   84  A    between atoms: _199  and  _200
REMARK   85  A    between atoms: _200  and  _201
REMARK   86  A    between atoms: _201  and  _202
REMARK   87  A    between atoms: _206  and  _208
REMARK   88  A    between atoms: _208  and  _209
REMARK   89  A    between atoms: _208  and  _211
REMARK   90  A    between atoms: _211  and  _212
REMARK   91  A    between atoms: _215  and  _217
REMARK   92  A    between atoms: _217  and  _218
REMARK   93  A    between atoms: _217  and  _220
REMARK   94  A    between atoms: _223  and  _225
REMARK   95  A    between atoms: _225  and  _226
REMARK   96  A    between atoms: _225  and  _228
REMARK   97  A    between atoms: _228  and  _229
REMARK   98  A    between atoms: _234  and  _236
REMARK   99  A    between atoms: _236  and  _237
REMARK  100  A    between atoms: _236  and  _239
REMARK  101  A    between atoms: _239  and  _240
REMARK  102  A    between atoms: _246  and  _248
REMARK  103  A    between atoms: _248  and  _249
REMARK  104  A    between atoms: _248  and  _251
REMARK  105  A    between atoms: _251  and  _252
REMARK  106  A    between atoms: _255  and  _257
REMARK  107  A    between atoms: _257  and  _258
REMARK  108  A    between atoms: _261  and  _263
REMARK  109  A    between atoms: _263  and  _264
REMARK  110  A    between atoms: _263  and  _266
REMARK  111  A    between atoms: _266  and  _267
REMARK  112  A    between atoms: _269  and  _271
REMARK  113  A    between atoms: _271  and  _272
REMARK  114  A    between atoms: _271  and  _274
REMARK                            x       y       z     vdW  Elec       q    Type
REMARK                         _______ _______ _______ _____ _____    ______ ____
ROOT
ATOM      1  O   HOH     1      16.717  10.801  35.841  0.00  0.00    +0.000 OA
ENDROOT
TORSDOF 0
REMARK  Name = ../refined-set-2016/1rnm/1rnm_pocket.pdb
REMARK  114 active torsions:
REMARK  status: ('A' for Active; 'I' for Inactive)
REMARK    1  A    between atoms: _1  and  _3
REMARK    2  A    between atoms: _3  and  _4
REMARK    3  A    between atoms: _3  and  _6
REMARK    4  A    between atoms: _6  and  _7
REMARK    5  A    between atoms: _7  and  _8
REMARK    6  A    between atoms: _8  and  _9
REMARK    7  A    between atoms: _9  and  _10
REMARK    8  A    between atoms: _14  and  _16
REMARK    9  A    between atoms: _16  and  _17
REMARK   10  A    between atoms: _16  and  _19
REMARK   11  A    between atoms: _19  and  _20
REMARK   12  A    between atoms: _26  and  _28
REMARK   13  A    between atoms: _28  and  _29
REMARK   14  A    between atoms: _28  and  _31
REMARK   15  A    between atoms: _31  and  _32
REMARK   16  A    between atoms: _32  and  _33
REMARK   17  A    between atoms: _38  and  _40
REMARK   18  A    between atoms: _40  and  _41
REMARK   19  A    between atoms: _40  and  _43
REMARK   20  A    between atoms: _43  and  _44
REMARK   21  A    between atoms: _49  and  _51
REMARK   22  A    between atoms: _51  and  _52
REMARK   23  A    between atoms: _51  and  _54
REMARK   24  A    between atoms: _54  and  _55
REMARK   25  A    between atoms: _58  and  _60
REMARK   26  A    between atoms: _60  and  _61
REMARK   27  A    between atoms: _60  and  _63
REMARK   28  A    between atoms: _63  and  _64
REMARK   29  A    between atoms: _64  and  _65
REMARK   30  A    between atoms: _65  and  _66
REMARK   31  A    between atoms: _66  and  _67
REMARK   32  A    between atoms: _72  and  _73
REMARK   33  A    between atoms: _78  and  _80
REMARK   34  A    between atoms: _80  and  _81
REMARK   35  A    between atoms: _80  and  _83
REMARK   36  A    between atoms: _86  and  _88
REMARK   37  A    between atoms: _88  and  _89
REMARK   38  A    between atoms: _88  and  _91
REMARK   39  A    between atoms: _91  and  _92
REMARK   40  A    between atoms: _97  and  _99
REMARK   41  A    between atoms: _99  and  _100
REMARK   42  A    between atoms: _99  and  _102
REMARK   43  A    between atoms: _102  and  _103
REMARK   44  A    between atoms: _106  and  _108
REMARK   45  A    between atoms: _108  and  _109
REMARK   46  A    between atoms: _108  and  _111
REMARK   47  A    between atoms: _111  and  _112
REMARK   48  A    between atoms: _118  and  _120
REMARK   49  A    between atoms: _120  and  _121
REMARK   50  A    between atoms: _120  and  _123
REMARK   51  A    between atoms: _123  and  _124
REMARK   52  A    between atoms: _124  and  _125
REMARK   53  A    between atoms: _125  and  _126
REMARK   54  A    between atoms: _126  and  _127
REMARK   55  A    between atoms: _131  and  _133
REMARK   56  A    between atoms: _133  and  _134
REMARK   57  A    between atoms: _133  and  _136
REMARK   58  A    between atoms: _136  and  _137
REMARK   59  A    between atoms: _142  and  _144
REMARK   60  A    between atoms: _144  and  _145
REMARK   61  A    between atoms: _144  and  _147
REMARK   62  A    between atoms: _147  and  _148
REMARK   63  A    between atoms: _151  and  _153
REMARK   64  A    between atoms: _153  and  _154
REMARK   65  A    between atoms: _153  and  _156
REMARK   66  A    between atoms: _156  and  _157
REMARK   67  A    between atoms: _160  and  _162
REMARK   68  A    between atoms: _162  and  _163
REMARK   69  A    between atoms: _162  and  _165
REMARK   70  A    between atoms: _165  and  _166
REMARK   71  A    between atoms: _169  and  _171
REMARK   72  A    between atoms: _171  and  _172
REMARK   73  A    between atoms: _171  and  _174
REMARK   74  A    between atoms: _176  and  _178
REMARK   75  A    between atoms: _178  and  _179
REMARK   76  A    between atoms: _178  and  _181
REMARK   77  A    between atoms: _181  and  _182
REMARK   78  A    between atoms: _182  and  _183
REMARK   79  A    between atoms: _183  and  _184
REMARK   80  A    between atoms: _193  and  _195
REMARK   81  A    between atoms: _195  and  _196
REMARK   82  A    between atoms: _195  and  _198
REMARK   83  A    between atoms: _198  and  _199
REMARK   84  A    between atoms: _199  and  _200
REMARK   85  A    between atoms: _200  and  _201
REMARK   86  A    between atoms: _201  and  _202
REMARK   87  A    between atoms: _206  and  _208
REMARK   88  A    between atoms: _208  and  _209
REMARK   89  A    between atoms: _208  and  _211
REMARK   90  A    between atoms: _211  and  _212
REMARK   91  A    between atoms: _215  and  _217
REMARK   92  A    between atoms: _217  and  _218
REMARK   93  A    between atoms: _217  and  _220
REMARK   94  A    between atoms: _223  and  _225
REMARK   95  A    between atoms: _225  and  _226
REMARK   96  A    between atoms: _225  and  _228
REMARK   97  A    between atoms: _228  and  _229
REMARK   98  A    between atoms: _234  and  _236
REMARK   99  A    between atoms: _236  and  _237
REMARK  100  A    between atoms: _236  and  _239
REMARK  101  A    between atoms: _239  and  _240
REMARK  102  A    between atoms: _246  and  _248
REMARK  103  A    between atoms: _248  and  _249
REMARK  104  A    between atoms: _248  and  _251
REMARK  105  A    between atoms: _251  and  _252
REMARK  106  A    between atoms: _255  and  _257
REMARK  107  A    between atoms: _257  and  _258
REMARK  108  A    between atoms: _261  and  _263
REMARK  109  A    between atoms: _263  and  _264
REMARK  110  A    between atoms: _263  and  _266
REMARK  111  A    between atoms: _266  and  _267
REMARK  112  A    between atoms: _269  and  _271
REMARK  113  A    between atoms: _271  and  _272
REMARK  114  A    between atoms: _271  and  _274
REMARK                            x       y       z     vdW  Elec       q    Type
REMARK                         _______ _______ _______ _____ _____    ______ ____
ROOT
ATOM      1  O   HOH     1       9.423  17.082  38.607  0.00  0.00    +0.000 OA
ENDROOT
TORSDOF 0
REMARK  Name = ../refined-set-2016/1rnm/1rnm_pocket.pdb
REMARK  114 active torsions:
REMARK  status: ('A' for Active; 'I' for Inactive)
REMARK    1  A    between atoms: _1  and  _3
REMARK    2  A    between atoms: _3  and  _4
REMARK    3  A    between atoms: _3  and  _6
REMARK    4  A    between atoms: _6  and  _7
REMARK    5  A    between atoms: _7  and  _8
REMARK    6  A    between atoms: _8  and  _9
REMARK    7  A    between atoms: _9  and  _10
REMARK    8  A    between atoms: _14  and  _16
REMARK    9  A    between atoms: _16  and  _17
REMARK   10  A    between atoms: _16  and  _19
REMARK   11  A    between atoms: _19  and  _20
REMARK   12  A    between atoms: _26  and  _28
REMARK   13  A    between atoms: _28  and  _29
REMARK   14  A    between atoms: _28  and  _31
REMARK   15  A    between atoms: _31  and  _32
REMARK   16  A    between atoms: _32  and  _33
REMARK   17  A    between atoms: _38  and  _40
REMARK   18  A    between atoms: _40  and  _41
REMARK   19  A    between atoms: _40  and  _43
REMARK   20  A    between atoms: _43  and  _44
REMARK   21  A    between atoms: _49  and  _51
REMARK   22  A    between atoms: _51  and  _52
REMARK   23  A    between atoms: _51  and  _54
REMARK   24  A    between atoms: _54  and  _55
REMARK   25  A    between atoms: _58  and  _60
REMARK   26  A    between atoms: _60  and  _61
REMARK   27  A    between atoms: _60  and  _63
REMARK   28  A    between atoms: _63  and  _64
REMARK   29  A    between atoms: _64  and  _65
REMARK   30  A    between atoms: _65  and  _66
REMARK   31  A    between atoms: _66  and  _67
REMARK   32  A    between atoms: _72  and  _73
REMARK   33  A    between atoms: _78  and  _80
REMARK   34  A    between atoms: _80  and  _81
REMARK   35  A    between atoms: _80  and  _83
REMARK   36  A    between atoms: _86  and  _88
REMARK   37  A    between atoms: _88  and  _89
REMARK   38  A    between atoms: _88  and  _91
REMARK   39  A    between atoms: _91  and  _92
REMARK   40  A    between atoms: _97  and  _99
REMARK   41  A    between atoms: _99  and  _100
REMARK   42  A    between atoms: _99  and  _102
REMARK   43  A    between atoms: _102  and  _103
REMARK   44  A    between atoms: _106  and  _108
REMARK   45  A    between atoms: _108  and  _109
REMARK   46  A    between atoms: _108  and  _111
REMARK   47  A    between atoms: _111  and  _112
REMARK   48  A    between atoms: _118  and  _120
REMARK   49  A    between atoms: _120  and  _121
REMARK   50  A    between atoms: _120  and  _123
REMARK   51  A    between atoms: _123  and  _124
REMARK   52  A    between atoms: _124  and  _125
REMARK   53  A    between atoms: _125  and  _126
REMARK   54  A    between atoms: _126  and  _127
REMARK   55  A    between atoms: _131  and  _133
REMARK   56  A    between atoms: _133  and  _134
REMARK   57  A    between atoms: _133  and  _136
REMARK   58  A    between atoms: _136  and  _137
REMARK   59  A    between atoms: _142  and  _144
REMARK   60  A    between atoms: _144  and  _145
REMARK   61  A    between atoms: _144  and  _147
REMARK   62  A    between atoms: _147  and  _148
REMARK   63  A    between atoms: _151  and  _153
REMARK   64  A    between atoms: _153  and  _154
REMARK   65  A    between atoms: _153  and  _156
REMARK   66  A    between atoms: _156  and  _157
REMARK   67  A    between atoms: _160  and  _162
REMARK   68  A    between atoms: _162  and  _163
REMARK   69  A    between atoms: _162  and  _165
REMARK   70  A    between atoms: _165  and  _166
REMARK   71  A    between atoms: _169  and  _171
REMARK   72  A    between atoms: _171  and  _172
REMARK   73  A    between atoms: _171  and  _174
REMARK   74  A    between atoms: _176  and  _178
REMARK   75  A    between atoms: _178  and  _179
REMARK   76  A    between atoms: _178  and  _181
REMARK   77  A    between atoms: _181  and  _182
REMARK   78  A    between atoms: _182  and  _183
REMARK   79  A    between atoms: _183  and  _184
REMARK   80  A    between atoms: _193  and  _195
REMARK   81  A    between atoms: _195  and  _196
REMARK   82  A    between atoms: _195  and  _198
REMARK   83  A    between atoms: _198  and  _199
REMARK   84  A    between atoms: _199  and  _200
REMARK   85  A    between atoms: _200  and  _201
REMARK   86  A    between atoms: _201  and  _202
REMARK   87  A    between atoms: _206  and  _208
REMARK   88  A    between atoms: _208  and  _209
REMARK   89  A    between atoms: _208  and  _211
REMARK   90  A    between atoms: _211  and  _212
REMARK   91  A    between atoms: _215  and  _217
REMARK   92  A    between atoms: _217  and  _218
REMARK   93  A    between atoms: _217  and  _220
REMARK   94  A    between atoms: _223  and  _225
REMARK   95  A    between atoms: _225  and  _226
REMARK   96  A    between atoms: _225  and  _228
REMARK   97  A    between atoms: _228  and  _229
REMARK   98  A    between atoms: _234  and  _236
REMARK   99  A    between atoms: _236  and  _237
REMARK  100  A    between atoms: _236  and  _239
REMARK  101  A    between atoms: _239  and  _240
REMARK  102  A    between atoms: _246  and  _248
REMARK  103  A    between atoms: _248  and  _249
REMARK  104  A    between atoms: _248  and  _251
REMARK  105  A    between atoms: _251  and  _252
REMARK  106  A    between atoms: _255  and  _257
REMARK  107  A    between atoms: _257  and  _258
REMARK  108  A    between atoms: _261  and  _263
REMARK  109  A    between atoms: _263  and  _264
REMARK  110  A    between atoms: _263  and  _266
REMARK  111  A    between atoms: _266  and  _267
REMARK  112  A    between atoms: _269  and  _271
REMARK  113  A    between atoms: _271  and  _272
REMARK  114  A    between atoms: _271  and  _274
REMARK                            x       y       z     vdW  Elec       q    Type
REMARK                         _______ _______ _______ _____ _____    ______ ____
ROOT
ATOM      1  O   HOH     1      13.945  15.717  32.612  0.00  0.00    +0.000 OA
ENDROOT
TORSDOF 0
REMARK  Name = ../refined-set-2016/1rnm/1rnm_pocket.pdb
REMARK  114 active torsions:
REMARK  status: ('A' for Active; 'I' for Inactive)
REMARK    1  A    between atoms: _1  and  _3
REMARK    2  A    between atoms: _3  and  _4
REMARK    3  A    between atoms: _3  and  _6
REMARK    4  A    between atoms: _6  and  _7
REMARK    5  A    between atoms: _7  and  _8
REMARK    6  A    between atoms: _8  and  _9
REMARK    7  A    between atoms: _9  and  _10
REMARK    8  A    between atoms: _14  and  _16
REMARK    9  A    between atoms: _16  and  _17
REMARK   10  A    between atoms: _16  and  _19
REMARK   11  A    between atoms: _19  and  _20
REMARK   12  A    between atoms: _26  and  _28
REMARK   13  A    between atoms: _28  and  _29
REMARK   14  A    between atoms: _28  and  _31
REMARK   15  A    between atoms: _31  and  _32
REMARK   16  A    between atoms: _32  and  _33
REMARK   17  A    between atoms: _38  and  _40
REMARK   18  A    between atoms: _40  and  _41
REMARK   19  A    between atoms: _40  and  _43
REMARK   20  A    between atoms: _43  and  _44
REMARK   21  A    between atoms: _49  and  _51
REMARK   22  A    between atoms: _51  and  _52
REMARK   23  A    between atoms: _51  and  _54
REMARK   24  A    between atoms: _54  and  _55
REMARK   25  A    between atoms: _58  and  _60
REMARK   26  A    between atoms: _60  and  _61
REMARK   27  A    between atoms: _60  and  _63
REMARK   28  A    between atoms: _63  and  _64
REMARK   29  A    between atoms: _64  and  _65
REMARK   30  A    between atoms: _65  and  _66
REMARK   31  A    between atoms: _66  and  _67
REMARK   32  A    between atoms: _72  and  _73
REMARK   33  A    between atoms: _78  and  _80
REMARK   34  A    between atoms: _80  and  _81
REMARK   35  A    between atoms: _80  and  _83
REMARK   36  A    between atoms: _86  and  _88
REMARK   37  A    between atoms: _88  and  _89
REMARK   38  A    between atoms: _88  and  _91
REMARK   39  A    between atoms: _91  and  _92
REMARK   40  A    between atoms: _97  and  _99
REMARK   41  A    between atoms: _99  and  _100
REMARK   42  A    between atoms: _99  and  _102
REMARK   43  A    between atoms: _102  and  _103
REMARK   44  A    between atoms: _106  and  _108
REMARK   45  A    between atoms: _108  and  _109
REMARK   46  A    between atoms: _108  and  _111
REMARK   47  A    between atoms: _111  and  _112
REMARK   48  A    between atoms: _118  and  _120
REMARK   49  A    between atoms: _120  and  _121
REMARK   50  A    between atoms: _120  and  _123
REMARK   51  A    between atoms: _123  and  _124
REMARK   52  A    between atoms: _124  and  _125
REMARK   53  A    between atoms: _125  and  _126
REMARK   54  A    between atoms: _126  and  _127
REMARK   55  A    between atoms: _131  and  _133
REMARK   56  A    between atoms: _133  and  _134
REMARK   57  A    between atoms: _133  and  _136
REMARK   58  A    between atoms: _136  and  _137
REMARK   59  A    between atoms: _142  and  _144
REMARK   60  A    between atoms: _144  and  _145
REMARK   61  A    between atoms: _144  and  _147
REMARK   62  A    between atoms: _147  and  _148
REMARK   63  A    between atoms: _151  and  _153
REMARK   64  A    between atoms: _153  and  _154
REMARK   65  A    between atoms: _153  and  _156
REMARK   66  A    between atoms: _156  and  _157
REMARK   67  A    between atoms: _160  and  _162
REMARK   68  A    between atoms: _162  and  _163
REMARK   69  A    between atoms: _162  and  _165
REMARK   70  A    between atoms: _165  and  _166
REMARK   71  A    between atoms: _169  and  _171
REMARK   72  A    between atoms: _171  and  _172
REMARK   73  A    between atoms: _171  and  _174
REMARK   74  A    between atoms: _176  and  _178
REMARK   75  A    between atoms: _178  and  _179
REMARK   76  A    between atoms: _178  and  _181
REMARK   77  A    between atoms: _181  and  _182
REMARK   78  A    between atoms: _182  and  _183
REMARK   79  A    between atoms: _183  and  _184
REMARK   80  A    between atoms: _193  and  _195
REMARK   81  A    between atoms: _195  and  _196
REMARK   82  A    between atoms: _195  and  _198
REMARK   83  A    between atoms: _198  and  _199
REMARK   84  A    between atoms: _199  and  _200
REMARK   85  A    between atoms: _200  and  _201
REMARK   86  A    between atoms: _201  and  _202
REMARK   87  A    between atoms: _206  and  _208
REMARK   88  A    between atoms: _208  and  _209
REMARK   89  A    between atoms: _208  and  _211
REMARK   90  A    between atoms: _211  and  _212
REMARK   91  A    between atoms: _215  and  _217
REMARK   92  A    between atoms: _217  and  _218
REMARK   93  A    between atoms: _217  and  _220
REMARK   94  A    between atoms: _223  and  _225
REMARK   95  A    between atoms: _225  and  _226
REMARK   96  A    between atoms: _225  and  _228
REMARK   97  A    between atoms: _228  and  _229
REMARK   98  A    between atoms: _234  and  _236
REMARK   99  A    between atoms: _236  and  _237
REMARK  100  A    between atoms: _236  and  _239
REMARK  101  A    between atoms: _239  and  _240
REMARK  102  A    between atoms: _246  and  _248
REMARK  103  A    between atoms: _248  and  _249
REMARK  104  A    between atoms: _248  and  _251
REMARK  105  A    between atoms: _251  and  _252
REMARK  106  A    between atoms: _255  and  _257
REMARK  107  A    between atoms: _257  and  _258
REMARK  108  A    between atoms: _261  and  _263
REMARK  109  A    between atoms: _263  and  _264
REMARK  110  A    between atoms: _263  and  _266
REMARK  111  A    between atoms: _266  and  _267
REMARK  112  A    between atoms: _269  and  _271
REMARK  113  A    between atoms: _271  and  _272
REMARK  114  A    between atoms: _271  and  _274
REMARK                            x       y       z     vdW  Elec       q    Type
REMARK                         _______ _______ _______ _____ _____    ______ ____
ROOT
ATOM      1  O   HOH     1      12.238  25.607  25.720  0.00  0.00    +0.000 OA
ENDROOT
TORSDOF 0
REMARK  Name = ../refined-set-2016/1rnm/1rnm_pocket.pdb
REMARK  114 active torsions:
REMARK  status: ('A' for Active; 'I' for Inactive)
REMARK    1  A    between atoms: _1  and  _3
REMARK    2  A    between atoms: _3  and  _4
REMARK    3  A    between atoms: _3  and  _6
REMARK    4  A    between atoms: _6  and  _7
REMARK    5  A    between atoms: _7  and  _8
REMARK    6  A    between atoms: _8  and  _9
REMARK    7  A    between atoms: _9  and  _10
REMARK    8  A    between atoms: _14  and  _16
REMARK    9  A    between atoms: _16  and  _17
REMARK   10  A    between atoms: _16  and  _19
REMARK   11  A    between atoms: _19  and  _20
REMARK   12  A    between atoms: _26  and  _28
REMARK   13  A    between atoms: _28  and  _29
REMARK   14  A    between atoms: _28  and  _31
REMARK   15  A    between atoms: _31  and  _32
REMARK   16  A    between atoms: _32  and  _33
REMARK   17  A    between atoms: _38  and  _40
REMARK   18  A    between atoms: _40  and  _41
REMARK   19  A    between atoms: _40  and  _43
REMARK   20  A    between atoms: _43  and  _44
REMARK   21  A    between atoms: _49  and  _51
REMARK   22  A    between atoms: _51  and  _52
REMARK   23  A    between atoms: _51  and  _54
REMARK   24  A    between atoms: _54  and  _55
REMARK   25  A    between atoms: _58  and  _60
REMARK   26  A    between atoms: _60  and  _61
REMARK   27  A    between atoms: _60  and  _63
REMARK   28  A    between atoms: _63  and  _64
REMARK   29  A    between atoms: _64  and  _65
REMARK   30  A    between atoms: _65  and  _66
REMARK   31  A    between atoms: _66  and  _67
REMARK   32  A    between atoms: _72  and  _73
REMARK   33  A    between atoms: _78  and  _80
REMARK   34  A    between atoms: _80  and  _81
REMARK   35  A    between atoms: _80  and  _83
REMARK   36  A    between atoms: _86  and  _88
REMARK   37  A    between atoms: _88  and  _89
REMARK   38  A    between atoms: _88  and  _91
REMARK   39  A    between atoms: _91  and  _92
REMARK   40  A    between atoms: _97  and  _99
REMARK   41  A    between atoms: _99  and  _100
REMARK   42  A    between atoms: _99  and  _102
REMARK   43  A    between atoms: _102  and  _103
REMARK   44  A    between atoms: _106  and  _108
REMARK   45  A    between atoms: _108  and  _109
REMARK   46  A    between atoms: _108  and  _111
REMARK   47  A    between atoms: _111  and  _112
REMARK   48  A    between atoms: _118  and  _120
REMARK   49  A    between atoms: _120  and  _121
REMARK   50  A    between atoms: _120  and  _123
REMARK   51  A    between atoms: _123  and  _124
REMARK   52  A    between atoms: _124  and  _125
REMARK   53  A    between atoms: _125  and  _126
REMARK   54  A    between atoms: _126  and  _127
REMARK   55  A    between atoms: _131  and  _133
REMARK   56  A    between atoms: _133  and  _134
REMARK   57  A    between atoms: _133  and  _136
REMARK   58  A    between atoms: _136  and  _137
REMARK   59  A    between atoms: _142  and  _144
REMARK   60  A    between atoms: _144  and  _145
REMARK   61  A    between atoms: _144  and  _147
REMARK   62  A    between atoms: _147  and  _148
REMARK   63  A    between atoms: _151  and  _153
REMARK   64  A    between atoms: _153  and  _154
REMARK   65  A    between atoms: _153  and  _156
REMARK   66  A    between atoms: _156  and  _157
REMARK   67  A    between atoms: _160  and  _162
REMARK   68  A    between atoms: _162  and  _163
REMARK   69  A    between atoms: _162  and  _165
REMARK   70  A    between atoms: _165  and  _166
REMARK   71  A    between atoms: _169  and  _171
REMARK   72  A    between atoms: _171  and  _172
REMARK   73  A    between atoms: _171  and  _174
REMARK   74  A    between atoms: _176  and  _178
REMARK   75  A    between atoms: _178  and  _179
REMARK   76  A    between atoms: _178  and  _181
REMARK   77  A    between atoms: _181  and  _182
REMARK   78  A    between atoms: _182  and  _183
REMARK   79  A    between atoms: _183  and  _184
REMARK   80  A    between atoms: _193  and  _195
REMARK   81  A    between atoms: _195  and  _196
REMARK   82  A    between atoms: _195  and  _198
REMARK   83  A    between atoms: _198  and  _199
REMARK   84  A    between atoms: _199  and  _200
REMARK   85  A    between atoms: _200  and  _201
REMARK   86  A    between atoms: _201  and  _202
REMARK   87  A    between atoms: _206  and  _208
REMARK   88  A    between atoms: _208  and  _209
REMARK   89  A    between atoms: _208  and  _211
REMARK   90  A    between atoms: _211  and  _212
REMARK   91  A    between atoms: _215  and  _217
REMARK   92  A    between atoms: _217  and  _218
REMARK   93  A    between atoms: _217  and  _220
REMARK   94  A    between atoms: _223  and  _225
REMARK   95  A    between atoms: _225  and  _226
REMARK   96  A    between atoms: _225  and  _228
REMARK   97  A    between atoms: _228  and  _229
REMARK   98  A    between atoms: _234  and  _236
REMARK   99  A    between atoms: _236  and  _237
REMARK  100  A    between atoms: _236  and  _239
REMARK  101  A    between atoms: _239  and  _240
REMARK  102  A    between atoms: _246  and  _248
REMARK  103  A    between atoms: _248  and  _249
REMARK  104  A    between atoms: _248  and  _251
REMARK  105  A    between atoms: _251  and  _252
REMARK  106  A    between atoms: _255  and  _257
REMARK  107  A    between atoms: _257  and  _258
REMARK  108  A    between atoms: _261  and  _263
REMARK  109  A    between atoms: _263  and  _264
REMARK  110  A    between atoms: _263  and  _266
REMARK  111  A    between atoms: _266  and  _267
REMARK  112  A    between atoms: _269  and  _271
REMARK  113  A    between atoms: _271  and  _272
REMARK  114  A    between atoms: _271  and  _274
REMARK                            x       y       z     vdW  Elec       q    Type
REMARK                         _______ _______ _______ _____ _____    ______ ____
ROOT
ATOM      1  O   HOH     1      15.021  25.084  30.480  0.00  0.00    +0.000 OA
ENDROOT
TORSDOF 0
REMARK  Name = ../refined-set-2016/1rnm/1rnm_pocket.pdb
REMARK  114 active torsions:
REMARK  status: ('A' for Active; 'I' for Inactive)
REMARK    1  A    between atoms: _1  and  _3
REMARK    2  A    between atoms: _3  and  _4
REMARK    3  A    between atoms: _3  and  _6
REMARK    4  A    between atoms: _6  and  _7
REMARK    5  A    between atoms: _7  and  _8
REMARK    6  A    between atoms: _8  and  _9
REMARK    7  A    between atoms: _9  and  _10
REMARK    8  A    between atoms: _14  and  _16
REMARK    9  A    between atoms: _16  and  _17
REMARK   10  A    between atoms: _16  and  _19
REMARK   11  A    between atoms: _19  and  _20
REMARK   12  A    between atoms: _26  and  _28
REMARK   13  A    between atoms: _28  and  _29
REMARK   14  A    between atoms: _28  and  _31
REMARK   15  A    between atoms: _31  and  _32
REMARK   16  A    between atoms: _32  and  _33
REMARK   17  A    between atoms: _38  and  _40
REMARK   18  A    between atoms: _40  and  _41
REMARK   19  A    between atoms: _40  and  _43
REMARK   20  A    between atoms: _43  and  _44
REMARK   21  A    between atoms: _49  and  _51
REMARK   22  A    between atoms: _51  and  _52
REMARK   23  A    between atoms: _51  and  _54
REMARK   24  A    between atoms: _54  and  _55
REMARK   25  A    between atoms: _58  and  _60
REMARK   26  A    between atoms: _60  and  _61
REMARK   27  A    between atoms: _60  and  _63
REMARK   28  A    between atoms: _63  and  _64
REMARK   29  A    between atoms: _64  and  _65
REMARK   30  A    between atoms: _65  and  _66
REMARK   31  A    between atoms: _66  and  _67
REMARK   32  A    between atoms: _72  and  _73
REMARK   33  A    between atoms: _78  and  _80
REMARK   34  A    between atoms: _80  and  _81
REMARK   35  A    between atoms: _80  and  _83
REMARK   36  A    between atoms: _86  and  _88
REMARK   37  A    between atoms: _88  and  _89
REMARK   38  A    between atoms: _88  and  _91
REMARK   39  A    between atoms: _91  and  _92
REMARK   40  A    between atoms: _97  and  _99
REMARK   41  A    between atoms: _99  and  _100
REMARK   42  A    between atoms: _99  and  _102
REMARK   43  A    between atoms: _102  and  _103
REMARK   44  A    between atoms: _106  and  _108
REMARK   45  A    between atoms: _108  and  _109
REMARK   46  A    between atoms: _108  and  _111
REMARK   47  A    between atoms: _111  and  _112
REMARK   48  A    between atoms: _118  and  _120
REMARK   49  A    between atoms: _120  and  _121
REMARK   50  A    between atoms: _120  and  _123
REMARK   51  A    between atoms: _123  and  _124
REMARK   52  A    between atoms: _124  and  _125
REMARK   53  A    between atoms: _125  and  _126
REMARK   54  A    between atoms: _126  and  _127
REMARK   55  A    between atoms: _131  and  _133
REMARK   56  A    between atoms: _133  and  _134
REMARK   57  A    between atoms: _133  and  _136
REMARK   58  A    between atoms: _136  and  _137
REMARK   59  A    between atoms: _142  and  _144
REMARK   60  A    between atoms: _144  and  _145
REMARK   61  A    between atoms: _144  and  _147
REMARK   62  A    between atoms: _147  and  _148
REMARK   63  A    between atoms: _151  and  _153
REMARK   64  A    between atoms: _153  and  _154
REMARK   65  A    between atoms: _153  and  _156
REMARK   66  A    between atoms: _156  and  _157
REMARK   67  A    between atoms: _160  and  _162
REMARK   68  A    between atoms: _162  and  _163
REMARK   69  A    between atoms: _162  and  _165
REMARK   70  A    between atoms: _165  and  _166
REMARK   71  A    between atoms: _169  and  _171
REMARK   72  A    between atoms: _171  and  _172
REMARK   73  A    between atoms: _171  and  _174
REMARK   74  A    between atoms: _176  and  _178
REMARK   75  A    between atoms: _178  and  _179
REMARK   76  A    between atoms: _178  and  _181
REMARK   77  A    between atoms: _181  and  _182
REMARK   78  A    between atoms: _182  and  _183
REMARK   79  A    between atoms: _183  and  _184
REMARK   80  A    between atoms: _193  and  _195
REMARK   81  A    between atoms: _195  and  _196
REMARK   82  A    between atoms: _195  and  _198
REMARK   83  A    between atoms: _198  and  _199
REMARK   84  A    between atoms: _199  and  _200
REMARK   85  A    between atoms: _200  and  _201
REMARK   86  A    between atoms: _201  and  _202
REMARK   87  A    between atoms: _206  and  _208
REMARK   88  A    between atoms: _208  and  _209
REMARK   89  A    between atoms: _208  and  _211
REMARK   90  A    between atoms: _211  and  _212
REMARK   91  A    between atoms: _215  and  _217
REMARK   92  A    between atoms: _217  and  _218
REMARK   93  A    between atoms: _217  and  _220
REMARK   94  A    between atoms: _223  and  _225
REMARK   95  A    between atoms: _225  and  _226
REMARK   96  A    between atoms: _225  and  _228
REMARK   97  A    between atoms: _228  and  _229
REMARK   98  A    between atoms: _234  and  _236
REMARK   99  A    between atoms: _236  and  _237
REMARK  100  A    between atoms: _236  and  _239
REMARK  101  A    between atoms: _239  and  _240
REMARK  102  A    between atoms: _246  and  _248
REMARK  103  A    between atoms: _248  and  _249
REMARK  104  A    between atoms: _248  and  _251
REMARK  105  A    between atoms: _251  and  _252
REMARK  106  A    between atoms: _255  and  _257
REMARK  107  A    between atoms: _257  and  _258
REMARK  108  A    between atoms: _261  and  _263
REMARK  109  A    between atoms: _263  and  _264
REMARK  110  A    between atoms: _263  and  _266
REMARK  111  A    between atoms: _266  and  _267
REMARK  112  A    between atoms: _269  and  _271
REMARK  113  A    between atoms: _271  and  _272
REMARK  114  A    between atoms: _271  and  _274
REMARK                            x       y       z     vdW  Elec       q    Type
REMARK                         _______ _______ _______ _____ _____    ______ ____
ROOT
ATOM      1  O   HOH     1      15.011  12.858  36.214  0.00  0.00    +0.000 OA
ENDROOT
TORSDOF 0
REMARK  Name = ../refined-set-2016/1rnm/1rnm_pocket.pdb
REMARK  114 active torsions:
REMARK  status: ('A' for Active; 'I' for Inactive)
REMARK    1  A    between atoms: _1  and  _3
REMARK    2  A    between atoms: _3  and  _4
REMARK    3  A    between atoms: _3  and  _6
REMARK    4  A    between atoms: _6  and  _7
REMARK    5  A    between atoms: _7  and  _8
REMARK    6  A    between atoms: _8  and  _9
REMARK    7  A    between atoms: _9  and  _10
REMARK    8  A    between atoms: _14  and  _16
REMARK    9  A    between atoms: _16  and  _17
REMARK   10  A    between atoms: _16  and  _19
REMARK   11  A    between atoms: _19  and  _20
REMARK   12  A    between atoms: _26  and  _28
REMARK   13  A    between atoms: _28  and  _29
REMARK   14  A    between atoms: _28  and  _31
REMARK   15  A    between atoms: _31  and  _32
REMARK   16  A    between atoms: _32  and  _33
REMARK   17  A    between atoms: _38  and  _40
REMARK   18  A    between atoms: _40  and  _41
REMARK   19  A    between atoms: _40  and  _43
REMARK   20  A    between atoms: _43  and  _44
REMARK   21  A    between atoms: _49  and  _51
REMARK   22  A    between atoms: _51  and  _52
REMARK   23  A    between atoms: _51  and  _54
REMARK   24  A    between atoms: _54  and  _55
REMARK   25  A    between atoms: _58  and  _60
REMARK   26  A    between atoms: _60  and  _61
REMARK   27  A    between atoms: _60  and  _63
REMARK   28  A    between atoms: _63  and  _64
REMARK   29  A    between atoms: _64  and  _65
REMARK   30  A    between atoms: _65  and  _66
REMARK   31  A    between atoms: _66  and  _67
REMARK   32  A    between atoms: _72  and  _73
REMARK   33  A    between atoms: _78  and  _80
REMARK   34  A    between atoms: _80  and  _81
REMARK   35  A    between atoms: _80  and  _83
REMARK   36  A    between atoms: _86  and  _88
REMARK   37  A    between atoms: _88  and  _89
REMARK   38  A    between atoms: _88  and  _91
REMARK   39  A    between atoms: _91  and  _92
REMARK   40  A    between atoms: _97  and  _99
REMARK   41  A    between atoms: _99  and  _100
REMARK   42  A    between atoms: _99  and  _102
REMARK   43  A    between atoms: _102  and  _103
REMARK   44  A    between atoms: _106  and  _108
REMARK   45  A    between atoms: _108  and  _109
REMARK   46  A    between atoms: _108  and  _111
REMARK   47  A    between atoms: _111  and  _112
REMARK   48  A    between atoms: _118  and  _120
REMARK   49  A    between atoms: _120  and  _121
REMARK   50  A    between atoms: _120  and  _123
REMARK   51  A    between atoms: _123  and  _124
REMARK   52  A    between atoms: _124  and  _125
REMARK   53  A    between atoms: _125  and  _126
REMARK   54  A    between atoms: _126  and  _127
REMARK   55  A    between atoms: _131  and  _133
REMARK   56  A    between atoms: _133  and  _134
REMARK   57  A    between atoms: _133  and  _136
REMARK   58  A    between atoms: _136  and  _137
REMARK   59  A    between atoms: _142  and  _144
REMARK   60  A    between atoms: _144  and  _145
REMARK   61  A    between atoms: _144  and  _147
REMARK   62  A    between atoms: _147  and  _148
REMARK   63  A    between atoms: _151  and  _153
REMARK   64  A    between atoms: _153  and  _154
REMARK   65  A    between atoms: _153  and  _156
REMARK   66  A    between atoms: _156  and  _157
REMARK   67  A    between atoms: _160  and  _162
REMARK   68  A    between atoms: _162  and  _163
REMARK   69  A    between atoms: _162  and  _165
REMARK   70  A    between atoms: _165  and  _166
REMARK   71  A    between atoms: _169  and  _171
REMARK   72  A    between atoms: _171  and  _172
REMARK   73  A    between atoms: _171  and  _174
REMARK   74  A    between atoms: _176  and  _178
REMARK   75  A    between atoms: _178  and  _179
REMARK   76  A    between atoms: _178  and  _181
REMARK   77  A    between atoms: _181  and  _182
REMARK   78  A    between atoms: _182  and  _183
REMARK   79  A    between atoms: _183  and  _184
REMARK   80  A    between atoms: _193  and  _195
REMARK   81  A    between atoms: _195  and  _196
REMARK   82  A    between atoms: _195  and  _198
REMARK   83  A    between atoms: _198  and  _199
REMARK   84  A    between atoms: _199  and  _200
REMARK   85  A    between atoms: _200  and  _201
REMARK   86  A    between atoms: _201  and  _202
REMARK   87  A    between atoms: _206  and  _208
REMARK   88  A    between atoms: _208  and  _209
REMARK   89  A    between atoms: _208  and  _211
REMARK   90  A    between atoms: _211  and  _212
REMARK   91  A    between atoms: _215  and  _217
REMARK   92  A    between atoms: _217  and  _218
REMARK   93  A    between atoms: _217  and  _220
REMARK   94  A    between atoms: _223  and  _225
REMARK   95  A    between atoms: _225  and  _226
REMARK   96  A    between atoms: _225  and  _228
REMARK   97  A    between atoms: _228  and  _229
REMARK   98  A    between atoms: _234  and  _236
REMARK   99  A    between atoms: _236  and  _237
REMARK  100  A    between atoms: _236  and  _239
REMARK  101  A    between atoms: _239  and  _240
REMARK  102  A    between atoms: _246  and  _248
REMARK  103  A    between atoms: _248  and  _249
REMARK  104  A    between atoms: _248  and  _251
REMARK  105  A    between atoms: _251  and  _252
REMARK  106  A    between atoms: _255  and  _257
REMARK  107  A    between atoms: _257  and  _258
REMARK  108  A    between atoms: _261  and  _263
REMARK  109  A    between atoms: _263  and  _264
REMARK  110  A    between atoms: _263  and  _266
REMARK  111  A    between atoms: _266  and  _267
REMARK  112  A    between atoms: _269  and  _271
REMARK  113  A    between atoms: _271  and  _272
REMARK  114  A    between atoms: _271  and  _274
REMARK                            x       y       z     vdW  Elec       q    Type
REMARK                         _______ _______ _______ _____ _____    ______ ____
ROOT
ATOM      1  O   HOH     1      16.743   9.539  29.277  0.00  0.00    +0.000 OA
ENDROOT
TORSDOF 0
