REMARK  Name = ../refined-set-2016/4wup/4wup_pocket.pdb
REMARK  156 active torsions:
REMARK  status: ('A' for Active; 'I' for Inactive)
REMARK    1  A    between atoms: _1  and  _5
REMARK    2  A    between atoms: _5  and  _6
REMARK    3  A    between atoms: _5  and  _8
REMARK    4  A    between atoms: _8  and  _9
REMARK    5  A    between atoms: _19  and  _21
REMARK    6  A    between atoms: _21  and  _22
REMARK    7  A    between atoms: _21  and  _24
REMARK    8  A    between atoms: _24  and  _25
REMARK    9  A    between atoms: _30  and  _31
REMARK   10  A    between atoms: _33  and  _35
REMARK   11  A    between atoms: _35  and  _36
REMARK   12  A    between atoms: _35  and  _38
REMARK   13  A    between atoms: _38  and  _39
REMARK   14  A    between atoms: _42  and  _43
REMARK   15  A    between atoms: _48  and  _50
REMARK   16  A    between atoms: _50  and  _51
REMARK   17  A    between atoms: _50  and  _53
REMARK   18  A    between atoms: _53  and  _54
REMARK   19  A    between atoms: _59  and  _61
REMARK   20  A    between atoms: _61  and  _62
REMARK   21  A    between atoms: _61  and  _64
REMARK   22  A    between atoms: _64  and  _65
REMARK   23  A    between atoms: _67  and  _69
REMARK   24  A    between atoms: _69  and  _70
REMARK   25  A    between atoms: _69  and  _72
REMARK   26  A    between atoms: _72  and  _73
REMARK   27  A    between atoms: _78  and  _80
REMARK   28  A    between atoms: _80  and  _81
REMARK   29  A    between atoms: _80  and  _83
REMARK   30  A    between atoms: _83  and  _84
REMARK   31  A    between atoms: _89  and  _91
REMARK   32  A    between atoms: _91  and  _92
REMARK   33  A    between atoms: _91  and  _94
REMARK   34  A    between atoms: _94  and  _95
REMARK   35  A    between atoms: _101  and  _103
REMARK   36  A    between atoms: _103  and  _104
REMARK   37  A    between atoms: _103  and  _106
REMARK   38  A    between atoms: _106  and  _107
REMARK   39  A    between atoms: _107  and  _108
REMARK   40  A    between atoms: _113  and  _115
REMARK   41  A    between atoms: _115  and  _116
REMARK   42  A    between atoms: _115  and  _118
REMARK   43  A    between atoms: _118  and  _119
REMARK   44  A    between atoms: _125  and  _127
REMARK   45  A    between atoms: _138  and  _141
REMARK   46  A    between atoms: _141  and  _142
REMARK   47  A    between atoms: _150  and  _151
REMARK   48  A    between atoms: _159  and  _161
REMARK   49  A    between atoms: _161  and  _162
REMARK   50  A    between atoms: _161  and  _164
REMARK   51  A    between atoms: _164  and  _165
REMARK   52  A    between atoms: _165  and  _166
REMARK   53  A    between atoms: _169  and  _171
REMARK   54  A    between atoms: _171  and  _172
REMARK   55  A    between atoms: _171  and  _174
REMARK   56  A    between atoms: _174  and  _175
REMARK   57  A    between atoms: _180  and  _182
REMARK   58  A    between atoms: _182  and  _183
REMARK   59  A    between atoms: _182  and  _185
REMARK   60  A    between atoms: _185  and  _186
REMARK   61  A    between atoms: _186  and  _187
REMARK   62  A    between atoms: _190  and  _192
REMARK   63  A    between atoms: _192  and  _193
REMARK   64  A    between atoms: _192  and  _195
REMARK   65  A    between atoms: _195  and  _196
REMARK   66  A    between atoms: _199  and  _201
REMARK   67  A    between atoms: _201  and  _202
REMARK   68  A    between atoms: _201  and  _204
REMARK   69  A    between atoms: _204  and  _205
REMARK   70  A    between atoms: _206  and  ZN_440
REMARK   71  A    between atoms: _210  and  _212
REMARK   72  A    between atoms: _212  and  _213
REMARK   73  A    between atoms: _212  and  _215
REMARK   74  A    between atoms: _218  and  _220
REMARK   75  A    between atoms: _220  and  _221
REMARK   76  A    between atoms: _224  and  _226
REMARK   77  A    between atoms: _226  and  _227
REMARK   78  A    between atoms: _226  and  _229
REMARK   79  A    between atoms: _229  and  _230
REMARK   80  A    between atoms: _235  and  _237
REMARK   81  A    between atoms: _237  and  _238
REMARK   82  A    between atoms: _237  and  _240
REMARK   83  A    between atoms: _240  and  _241
REMARK   84  A    between atoms: _244  and  _246
REMARK   85  A    between atoms: _246  and  _247
REMARK   86  A    between atoms: _250  and  _252
REMARK   87  A    between atoms: _252  and  _253
REMARK   88  A    between atoms: _256  and  _258
REMARK   89  A    between atoms: _258  and  _259
REMARK   90  A    between atoms: _258  and  _261
REMARK   91  A    between atoms: _261  and  _262
REMARK   92  A    between atoms: _264  and  _266
REMARK   93  A    between atoms: _266  and  _267
REMARK   94  A    between atoms: _266  and  _269
REMARK   95  A    between atoms: _269  and  _270
REMARK   96  A    between atoms: _273  and  _275
REMARK   97  A    between atoms: _275  and  _276
REMARK   98  A    between atoms: _279  and  _281
REMARK   99  A    between atoms: _281  and  _282
REMARK  100  A    between atoms: _281  and  _284
REMARK  101  A    between atoms: _287  and  _289
REMARK  102  A    between atoms: _289  and  _290
REMARK  103  A    between atoms: _289  and  _292
REMARK  104  A    between atoms: _292  and  _293
REMARK  105  A    between atoms: _296  and  _298
REMARK  106  A    between atoms: _298  and  _299
REMARK  107  A    between atoms: _301  and  _303
REMARK  108  A    between atoms: _303  and  _304
REMARK  109  A    between atoms: _306  and  _308
REMARK  110  A    between atoms: _308  and  _309
REMARK  111  A    between atoms: _308  and  _311
REMARK  112  A    between atoms: _311  and  _312
REMARK  113  A    between atoms: _314  and  _316
REMARK  114  A    between atoms: _316  and  _317
REMARK  115  A    between atoms: _316  and  _319
REMARK  116  A    between atoms: _319  and  _320
REMARK  117  A    between atoms: _323  and  _325
REMARK  118  A    between atoms: _325  and  _326
REMARK  119  A    between atoms: _325  and  _328
REMARK  120  A    between atoms: _328  and  _329
REMARK  121  A    between atoms: _332  and  _334
REMARK  122  A    between atoms: _334  and  _335
REMARK  123  A    between atoms: _334  and  _337
REMARK  124  A    between atoms: _337  and  _338
REMARK  125  A    between atoms: _344  and  _345
REMARK  126  A    between atoms: _351  and  _352
REMARK  127  A    between atoms: _357  and  _359
REMARK  128  A    between atoms: _359  and  _360
REMARK  129  A    between atoms: _359  and  _362
REMARK  130  A    between atoms: _362  and  _363
REMARK  131  A    between atoms: _366  and  _368
REMARK  132  A    between atoms: _368  and  _369
REMARK  133  A    between atoms: _368  and  _371
REMARK  134  A    between atoms: _371  and  _372
REMARK  135  A    between atoms: _377  and  _378
REMARK  136  A    between atoms: _380  and  _382
REMARK  137  A    between atoms: _382  and  _383
REMARK  138  A    between atoms: _382  and  _385
REMARK  139  A    between atoms: _385  and  _386
REMARK  140  A    between atoms: _388  and  _390
REMARK  141  A    between atoms: _390  and  _391
REMARK  142  A    between atoms: _390  and  _393
REMARK  143  A    between atoms: _396  and  _398
REMARK  144  A    between atoms: _398  and  _399
REMARK  145  A    between atoms: _398  and  _401
REMARK  146  A    between atoms: _401  and  _402
REMARK  147  A    between atoms: _412  and  _414
REMARK  148  A    between atoms: _414  and  _415
REMARK  149  A    between atoms: _414  and  _417
REMARK  150  A    between atoms: _417  and  _418
REMARK  151  A    between atoms: _423  and  _425
REMARK  152  A    between atoms: _425  and  _426
REMARK  153  A    between atoms: _425  and  _428
REMARK  154  A    between atoms: _428  and  _429
REMARK  155  A    between atoms: _429  and  _430
REMARK  156  A    between atoms: _430  and  _431
REMARK                            x       y       z     vdW  Elec       q    Type
REMARK                         _______ _______ _______ _____ _____    ______ ____
ROOT
ATOM      1  CG  TRP A   1      15.633  44.039  10.383  0.00  0.00    -0.005 A 
ATOM      2  CD2 TRP A   1      16.382  43.162  11.299  0.00  0.00    +0.013 A 
ATOM      3  CE3 TRP A   1      17.437  43.356  12.148  0.00  0.00    +0.001 A 
ATOM      4  CZ3 TRP A   1      17.950  42.252  12.867  0.00  0.00    +0.000 A 
ATOM      5  CH2 TRP A   1      17.369  40.970  12.741  0.00  0.00    +0.001 A 
ATOM      6  CZ2 TRP A   1      16.284  40.741  11.889  0.00  0.00    +0.017 A 
ATOM      7  CE2 TRP A   1      15.797  41.831  11.168  0.00  0.00    +0.056 A 
ATOM      8  NE1 TRP A   1      14.787  41.925  10.238  0.00  0.00    -0.352 N 
ATOM      9  HE1 TRP A   1      14.186  41.134   9.932  0.00  0.00    +0.166 HD
ATOM     10  CD1 TRP A   1      14.685  43.230   9.766  0.00  0.00    +0.068 A 
ENDROOT
BRANCH   1  11
ATOM     11  CB  TRP A   1      15.884  45.497  10.172  0.00  0.00    +0.014 C 
BRANCH  11  12
ATOM     12  CA  TRP A   1      16.935  45.756   9.073  0.00  0.00    +0.005 C 
BRANCH  12  13
ATOM     13  N   TRP A   1      16.326  45.540   7.711  0.00  0.00    +0.387 N 
ATOM     14  H1  TRP A   1      15.453  46.100   7.630  0.00  0.00    -0.089 HD
ATOM     15  H2  TRP A   1      16.105  44.531   7.587  0.00  0.00    -0.089 HD
ATOM     16  H3  TRP A   1      17.001  45.840   6.979  0.00  0.00    -0.089 HD
ENDBRANCH  12  13
BRANCH  12  17
ATOM     17  C   TRP A   1      18.222  45.003   9.348  0.00  0.00    +0.185 C 
ATOM     18  O   TRP A   1      18.550  43.925   8.758  0.00  0.00    -0.291 OA
ENDBRANCH  12  17
ENDBRANCH  11  12
ENDBRANCH   1  11
TORSDOF 4
REMARK  Name = ../refined-set-2016/4wup/4wup_pocket.pdb
REMARK  156 active torsions:
REMARK  status: ('A' for Active; 'I' for Inactive)
REMARK    1  A    between atoms: _1  and  _5
REMARK    2  A    between atoms: _5  and  _6
REMARK    3  A    between atoms: _5  and  _8
REMARK    4  A    between atoms: _8  and  _9
REMARK    5  A    between atoms: _19  and  _21
REMARK    6  A    between atoms: _21  and  _22
REMARK    7  A    between atoms: _21  and  _24
REMARK    8  A    between atoms: _24  and  _25
REMARK    9  A    between atoms: _30  and  _31
REMARK   10  A    between atoms: _33  and  _35
REMARK   11  A    between atoms: _35  and  _36
REMARK   12  A    between atoms: _35  and  _38
REMARK   13  A    between atoms: _38  and  _39
REMARK   14  A    between atoms: _42  and  _43
REMARK   15  A    between atoms: _48  and  _50
REMARK   16  A    between atoms: _50  and  _51
REMARK   17  A    between atoms: _50  and  _53
REMARK   18  A    between atoms: _53  and  _54
REMARK   19  A    between atoms: _59  and  _61
REMARK   20  A    between atoms: _61  and  _62
REMARK   21  A    between atoms: _61  and  _64
REMARK   22  A    between atoms: _64  and  _65
REMARK   23  A    between atoms: _67  and  _69
REMARK   24  A    between atoms: _69  and  _70
REMARK   25  A    between atoms: _69  and  _72
REMARK   26  A    between atoms: _72  and  _73
REMARK   27  A    between atoms: _78  and  _80
REMARK   28  A    between atoms: _80  and  _81
REMARK   29  A    between atoms: _80  and  _83
REMARK   30  A    between atoms: _83  and  _84
REMARK   31  A    between atoms: _89  and  _91
REMARK   32  A    between atoms: _91  and  _92
REMARK   33  A    between atoms: _91  and  _94
REMARK   34  A    between atoms: _94  and  _95
REMARK   35  A    between atoms: _101  and  _103
REMARK   36  A    between atoms: _103  and  _104
REMARK   37  A    between atoms: _103  and  _106
REMARK   38  A    between atoms: _106  and  _107
REMARK   39  A    between atoms: _107  and  _108
REMARK   40  A    between atoms: _113  and  _115
REMARK   41  A    between atoms: _115  and  _116
REMARK   42  A    between atoms: _115  and  _118
REMARK   43  A    between atoms: _118  and  _119
REMARK   44  A    between atoms: _125  and  _127
REMARK   45  A    between atoms: _138  and  _141
REMARK   46  A    between atoms: _141  and  _142
REMARK   47  A    between atoms: _150  and  _151
REMARK   48  A    between atoms: _159  and  _161
REMARK   49  A    between atoms: _161  and  _162
REMARK   50  A    between atoms: _161  and  _164
REMARK   51  A    between atoms: _164  and  _165
REMARK   52  A    between atoms: _165  and  _166
REMARK   53  A    between atoms: _169  and  _171
REMARK   54  A    between atoms: _171  and  _172
REMARK   55  A    between atoms: _171  and  _174
REMARK   56  A    between atoms: _174  and  _175
REMARK   57  A    between atoms: _180  and  _182
REMARK   58  A    between atoms: _182  and  _183
REMARK   59  A    between atoms: _182  and  _185
REMARK   60  A    between atoms: _185  and  _186
REMARK   61  A    between atoms: _186  and  _187
REMARK   62  A    between atoms: _190  and  _192
REMARK   63  A    between atoms: _192  and  _193
REMARK   64  A    between atoms: _192  and  _195
REMARK   65  A    between atoms: _195  and  _196
REMARK   66  A    between atoms: _199  and  _201
REMARK   67  A    between atoms: _201  and  _202
REMARK   68  A    between atoms: _201  and  _204
REMARK   69  A    between atoms: _204  and  _205
REMARK   70  A    between atoms: _206  and  ZN_440
REMARK   71  A    between atoms: _210  and  _212
REMARK   72  A    between atoms: _212  and  _213
REMARK   73  A    between atoms: _212  and  _215
REMARK   74  A    between atoms: _218  and  _220
REMARK   75  A    between atoms: _220  and  _221
REMARK   76  A    between atoms: _224  and  _226
REMARK   77  A    between atoms: _226  and  _227
REMARK   78  A    between atoms: _226  and  _229
REMARK   79  A    between atoms: _229  and  _230
REMARK   80  A    between atoms: _235  and  _237
REMARK   81  A    between atoms: _237  and  _238
REMARK   82  A    between atoms: _237  and  _240
REMARK   83  A    between atoms: _240  and  _241
REMARK   84  A    between atoms: _244  and  _246
REMARK   85  A    between atoms: _246  and  _247
REMARK   86  A    between atoms: _250  and  _252
REMARK   87  A    between atoms: _252  and  _253
REMARK   88  A    between atoms: _256  and  _258
REMARK   89  A    between atoms: _258  and  _259
REMARK   90  A    between atoms: _258  and  _261
REMARK   91  A    between atoms: _261  and  _262
REMARK   92  A    between atoms: _264  and  _266
REMARK   93  A    between atoms: _266  and  _267
REMARK   94  A    between atoms: _266  and  _269
REMARK   95  A    between atoms: _269  and  _270
REMARK   96  A    between atoms: _273  and  _275
REMARK   97  A    between atoms: _275  and  _276
REMARK   98  A    between atoms: _279  and  _281
REMARK   99  A    between atoms: _281  and  _282
REMARK  100  A    between atoms: _281  and  _284
REMARK  101  A    between atoms: _287  and  _289
REMARK  102  A    between atoms: _289  and  _290
REMARK  103  A    between atoms: _289  and  _292
REMARK  104  A    between atoms: _292  and  _293
REMARK  105  A    between atoms: _296  and  _298
REMARK  106  A    between atoms: _298  and  _299
REMARK  107  A    between atoms: _301  and  _303
REMARK  108  A    between atoms: _303  and  _304
REMARK  109  A    between atoms: _306  and  _308
REMARK  110  A    between atoms: _308  and  _309
REMARK  111  A    between atoms: _308  and  _311
REMARK  112  A    between atoms: _311  and  _312
REMARK  113  A    between atoms: _314  and  _316
REMARK  114  A    between atoms: _316  and  _317
REMARK  115  A    between atoms: _316  and  _319
REMARK  116  A    between atoms: _319  and  _320
REMARK  117  A    between atoms: _323  and  _325
REMARK  118  A    between atoms: _325  and  _326
REMARK  119  A    between atoms: _325  and  _328
REMARK  120  A    between atoms: _328  and  _329
REMARK  121  A    between atoms: _332  and  _334
REMARK  122  A    between atoms: _334  and  _335
REMARK  123  A    between atoms: _334  and  _337
REMARK  124  A    between atoms: _337  and  _338
REMARK  125  A    between atoms: _344  and  _345
REMARK  126  A    between atoms: _351  and  _352
REMARK  127  A    between atoms: _357  and  _359
REMARK  128  A    between atoms: _359  and  _360
REMARK  129  A    between atoms: _359  and  _362
REMARK  130  A    between atoms: _362  and  _363
REMARK  131  A    between atoms: _366  and  _368
REMARK  132  A    between atoms: _368  and  _369
REMARK  133  A    between atoms: _368  and  _371
REMARK  134  A    between atoms: _371  and  _372
REMARK  135  A    between atoms: _377  and  _378
REMARK  136  A    between atoms: _380  and  _382
REMARK  137  A    between atoms: _382  and  _383
REMARK  138  A    between atoms: _382  and  _385
REMARK  139  A    between atoms: _385  and  _386
REMARK  140  A    between atoms: _388  and  _390
REMARK  141  A    between atoms: _390  and  _391
REMARK  142  A    between atoms: _390  and  _393
REMARK  143  A    between atoms: _396  and  _398
REMARK  144  A    between atoms: _398  and  _399
REMARK  145  A    between atoms: _398  and  _401
REMARK  146  A    between atoms: _401  and  _402
REMARK  147  A    between atoms: _412  and  _414
REMARK  148  A    between atoms: _414  and  _415
REMARK  149  A    between atoms: _414  and  _417
REMARK  150  A    between atoms: _417  and  _418
REMARK  151  A    between atoms: _423  and  _425
REMARK  152  A    between atoms: _425  and  _426
REMARK  153  A    between atoms: _425  and  _428
REMARK  154  A    between atoms: _428  and  _429
REMARK  155  A    between atoms: _429  and  _430
REMARK  156  A    between atoms: _430  and  _431
REMARK                            x       y       z     vdW  Elec       q    Type
REMARK                         _______ _______ _______ _____ _____    ______ ____
ROOT
ATOM      1  CG  TYR A   1      22.440  44.030  14.722  0.00  0.00    -0.020 A 
ATOM      2  CD2 TYR A   1      21.815  44.367  15.967  0.00  0.00    -0.001 A 
ATOM      3  CE2 TYR A   1      20.874  43.536  16.566  0.00  0.00    +0.036 A 
ATOM      4  CZ  TYR A   1      20.589  42.313  15.918  0.00  0.00    +0.134 A 
ATOM      5  CE1 TYR A   1      21.186  41.976  14.718  0.00  0.00    +0.036 A 
ATOM      6  CD1 TYR A   1      22.122  42.829  14.121  0.00  0.00    -0.001 A 
ENDROOT
BRANCH   4   7
ATOM      7  OH  TYR A   1      19.704  41.385  16.423  0.00  0.00    -0.506 OA
ATOM      8  HH  TYR A   1      20.014  41.086  17.315  0.00  0.00    +0.292 HD
ENDBRANCH   4   7
BRANCH   1   9
ATOM      9  CB  TYR A   1      23.445  44.969  14.093  0.00  0.00    +0.051 C 
BRANCH   9  10
ATOM     10  CA  TYR A   1      22.722  46.074  13.331  0.00  0.00    +0.137 C 
BRANCH  10  11
ATOM     11  N   TYR A   1      22.079  45.506  12.152  0.00  0.00    -0.239 NA
ATOM     12  H   TYR A   1      22.667  45.061  11.419  0.00  0.00    +0.142 HD
ENDBRANCH  10  11
BRANCH  10  13
ATOM     13  C   TYR A   1      23.697  47.204  12.997  0.00  0.00    +0.224 C 
ATOM     14  O   TYR A   1      24.298  47.751  13.893  0.00  0.00    -0.287 OA
ENDBRANCH  10  13
ENDBRANCH   9  10
ENDBRANCH   1   9
TORSDOF 5
REMARK  Name = ../refined-set-2016/4wup/4wup_pocket.pdb
REMARK  156 active torsions:
REMARK  status: ('A' for Active; 'I' for Inactive)
REMARK    1  A    between atoms: _1  and  _5
REMARK    2  A    between atoms: _5  and  _6
REMARK    3  A    between atoms: _5  and  _8
REMARK    4  A    between atoms: _8  and  _9
REMARK    5  A    between atoms: _19  and  _21
REMARK    6  A    between atoms: _21  and  _22
REMARK    7  A    between atoms: _21  and  _24
REMARK    8  A    between atoms: _24  and  _25
REMARK    9  A    between atoms: _30  and  _31
REMARK   10  A    between atoms: _33  and  _35
REMARK   11  A    between atoms: _35  and  _36
REMARK   12  A    between atoms: _35  and  _38
REMARK   13  A    between atoms: _38  and  _39
REMARK   14  A    between atoms: _42  and  _43
REMARK   15  A    between atoms: _48  and  _50
REMARK   16  A    between atoms: _50  and  _51
REMARK   17  A    between atoms: _50  and  _53
REMARK   18  A    between atoms: _53  and  _54
REMARK   19  A    between atoms: _59  and  _61
REMARK   20  A    between atoms: _61  and  _62
REMARK   21  A    between atoms: _61  and  _64
REMARK   22  A    between atoms: _64  and  _65
REMARK   23  A    between atoms: _67  and  _69
REMARK   24  A    between atoms: _69  and  _70
REMARK   25  A    between atoms: _69  and  _72
REMARK   26  A    between atoms: _72  and  _73
REMARK   27  A    between atoms: _78  and  _80
REMARK   28  A    between atoms: _80  and  _81
REMARK   29  A    between atoms: _80  and  _83
REMARK   30  A    between atoms: _83  and  _84
REMARK   31  A    between atoms: _89  and  _91
REMARK   32  A    between atoms: _91  and  _92
REMARK   33  A    between atoms: _91  and  _94
REMARK   34  A    between atoms: _94  and  _95
REMARK   35  A    between atoms: _101  and  _103
REMARK   36  A    between atoms: _103  and  _104
REMARK   37  A    between atoms: _103  and  _106
REMARK   38  A    between atoms: _106  and  _107
REMARK   39  A    between atoms: _107  and  _108
REMARK   40  A    between atoms: _113  and  _115
REMARK   41  A    between atoms: _115  and  _116
REMARK   42  A    between atoms: _115  and  _118
REMARK   43  A    between atoms: _118  and  _119
REMARK   44  A    between atoms: _125  and  _127
REMARK   45  A    between atoms: _138  and  _141
REMARK   46  A    between atoms: _141  and  _142
REMARK   47  A    between atoms: _150  and  _151
REMARK   48  A    between atoms: _159  and  _161
REMARK   49  A    between atoms: _161  and  _162
REMARK   50  A    between atoms: _161  and  _164
REMARK   51  A    between atoms: _164  and  _165
REMARK   52  A    between atoms: _165  and  _166
REMARK   53  A    between atoms: _169  and  _171
REMARK   54  A    between atoms: _171  and  _172
REMARK   55  A    between atoms: _171  and  _174
REMARK   56  A    between atoms: _174  and  _175
REMARK   57  A    between atoms: _180  and  _182
REMARK   58  A    between atoms: _182  and  _183
REMARK   59  A    between atoms: _182  and  _185
REMARK   60  A    between atoms: _185  and  _186
REMARK   61  A    between atoms: _186  and  _187
REMARK   62  A    between atoms: _190  and  _192
REMARK   63  A    between atoms: _192  and  _193
REMARK   64  A    between atoms: _192  and  _195
REMARK   65  A    between atoms: _195  and  _196
REMARK   66  A    between atoms: _199  and  _201
REMARK   67  A    between atoms: _201  and  _202
REMARK   68  A    between atoms: _201  and  _204
REMARK   69  A    between atoms: _204  and  _205
REMARK   70  A    between atoms: _206  and  ZN_440
REMARK   71  A    between atoms: _210  and  _212
REMARK   72  A    between atoms: _212  and  _213
REMARK   73  A    between atoms: _212  and  _215
REMARK   74  A    between atoms: _218  and  _220
REMARK   75  A    between atoms: _220  and  _221
REMARK   76  A    between atoms: _224  and  _226
REMARK   77  A    between atoms: _226  and  _227
REMARK   78  A    between atoms: _226  and  _229
REMARK   79  A    between atoms: _229  and  _230
REMARK   80  A    between atoms: _235  and  _237
REMARK   81  A    between atoms: _237  and  _238
REMARK   82  A    between atoms: _237  and  _240
REMARK   83  A    between atoms: _240  and  _241
REMARK   84  A    between atoms: _244  and  _246
REMARK   85  A    between atoms: _246  and  _247
REMARK   86  A    between atoms: _250  and  _252
REMARK   87  A    between atoms: _252  and  _253
REMARK   88  A    between atoms: _256  and  _258
REMARK   89  A    between atoms: _258  and  _259
REMARK   90  A    between atoms: _258  and  _261
REMARK   91  A    between atoms: _261  and  _262
REMARK   92  A    between atoms: _264  and  _266
REMARK   93  A    between atoms: _266  and  _267
REMARK   94  A    between atoms: _266  and  _269
REMARK   95  A    between atoms: _269  and  _270
REMARK   96  A    between atoms: _273  and  _275
REMARK   97  A    between atoms: _275  and  _276
REMARK   98  A    between atoms: _279  and  _281
REMARK   99  A    between atoms: _281  and  _282
REMARK  100  A    between atoms: _281  and  _284
REMARK  101  A    between atoms: _287  and  _289
REMARK  102  A    between atoms: _289  and  _290
REMARK  103  A    between atoms: _289  and  _292
REMARK  104  A    between atoms: _292  and  _293
REMARK  105  A    between atoms: _296  and  _298
REMARK  106  A    between atoms: _298  and  _299
REMARK  107  A    between atoms: _301  and  _303
REMARK  108  A    between atoms: _303  and  _304
REMARK  109  A    between atoms: _306  and  _308
REMARK  110  A    between atoms: _308  and  _309
REMARK  111  A    between atoms: _308  and  _311
REMARK  112  A    between atoms: _311  and  _312
REMARK  113  A    between atoms: _314  and  _316
REMARK  114  A    between atoms: _316  and  _317
REMARK  115  A    between atoms: _316  and  _319
REMARK  116  A    between atoms: _319  and  _320
REMARK  117  A    between atoms: _323  and  _325
REMARK  118  A    between atoms: _325  and  _326
REMARK  119  A    between atoms: _325  and  _328
REMARK  120  A    between atoms: _328  and  _329
REMARK  121  A    between atoms: _332  and  _334
REMARK  122  A    between atoms: _334  and  _335
REMARK  123  A    between atoms: _334  and  _337
REMARK  124  A    between atoms: _337  and  _338
REMARK  125  A    between atoms: _344  and  _345
REMARK  126  A    between atoms: _351  and  _352
REMARK  127  A    between atoms: _357  and  _359
REMARK  128  A    between atoms: _359  and  _360
REMARK  129  A    between atoms: _359  and  _362
REMARK  130  A    between atoms: _362  and  _363
REMARK  131  A    between atoms: _366  and  _368
REMARK  132  A    between atoms: _368  and  _369
REMARK  133  A    between atoms: _368  and  _371
REMARK  134  A    between atoms: _371  and  _372
REMARK  135  A    between atoms: _377  and  _378
REMARK  136  A    between atoms: _380  and  _382
REMARK  137  A    between atoms: _382  and  _383
REMARK  138  A    between atoms: _382  and  _385
REMARK  139  A    between atoms: _385  and  _386
REMARK  140  A    between atoms: _388  and  _390
REMARK  141  A    between atoms: _390  and  _391
REMARK  142  A    between atoms: _390  and  _393
REMARK  143  A    between atoms: _396  and  _398
REMARK  144  A    between atoms: _398  and  _399
REMARK  145  A    between atoms: _398  and  _401
REMARK  146  A    between atoms: _401  and  _402
REMARK  147  A    between atoms: _412  and  _414
REMARK  148  A    between atoms: _414  and  _415
REMARK  149  A    between atoms: _414  and  _417
REMARK  150  A    between atoms: _417  and  _418
REMARK  151  A    between atoms: _423  and  _425
REMARK  152  A    between atoms: _425  and  _426
REMARK  153  A    between atoms: _425  and  _428
REMARK  154  A    between atoms: _428  and  _429
REMARK  155  A    between atoms: _429  and  _430
REMARK  156  A    between atoms: _430  and  _431
REMARK                            x       y       z     vdW  Elec       q    Type
REMARK                         _______ _______ _______ _____ _____    ______ ____
ROOT
ATOM      1  C   SER A   1      14.743  43.972  24.535  0.00  0.00    +0.244 C 
ATOM      2  N   PRO A   2      15.995  43.879  25.079  0.00  0.00    -0.273 N 
ATOM      3  CA  PRO A   2      16.235  43.405  26.429  0.00  0.00    +0.140 C 
ATOM      4  CB  PRO A   2      17.697  42.989  26.368  0.00  0.00    +0.030 C 
ATOM      5  CG  PRO A   2      18.320  43.951  25.383  0.00  0.00    +0.024 C 
ATOM      6  CD  PRO A   2      17.245  43.934  24.293  0.00  0.00    +0.094 C 
ATOM      7  O   SER A   1      14.601  44.214  23.335  0.00  0.00    -0.273 OA
ENDROOT
BRANCH   3   8
ATOM      8  C   PRO A   2      16.155  44.598  27.396  0.00  0.00    +0.227 C 
ATOM      9  O   PRO A   2      15.826  45.698  27.020  0.00  0.00    -0.286 OA
ENDBRANCH   3   8
BRANCH   1  10
ATOM     10  CA  SER A   1      13.547  43.729  25.400  0.00  0.00    +0.175 C 
BRANCH  10  11
ATOM     11  N   SER A   1      12.407  44.489  24.772  0.00  0.00    -0.236 NA
ATOM     12  H   SER A   1      12.195  44.343  23.764  0.00  0.00    +0.142 HD
ENDBRANCH  10  11
BRANCH  10  13
ATOM     13  CB  SER A   1      13.222  42.245  25.416  0.00  0.00    +0.163 C 
BRANCH  13  14
ATOM     14  OG  SER A   1      12.200  41.945  26.329  0.00  0.00    -0.380 OA
ATOM     15  H   SER A   1      12.484  42.211  27.239  0.00  0.00    +0.211 HD
ENDBRANCH  13  14
ENDBRANCH  10  13
ENDBRANCH   1  10
TORSDOF 5
REMARK  Name = ../refined-set-2016/4wup/4wup_pocket.pdb
REMARK  156 active torsions:
REMARK  status: ('A' for Active; 'I' for Inactive)
REMARK    1  A    between atoms: _1  and  _5
REMARK    2  A    between atoms: _5  and  _6
REMARK    3  A    between atoms: _5  and  _8
REMARK    4  A    between atoms: _8  and  _9
REMARK    5  A    between atoms: _19  and  _21
REMARK    6  A    between atoms: _21  and  _22
REMARK    7  A    between atoms: _21  and  _24
REMARK    8  A    between atoms: _24  and  _25
REMARK    9  A    between atoms: _30  and  _31
REMARK   10  A    between atoms: _33  and  _35
REMARK   11  A    between atoms: _35  and  _36
REMARK   12  A    between atoms: _35  and  _38
REMARK   13  A    between atoms: _38  and  _39
REMARK   14  A    between atoms: _42  and  _43
REMARK   15  A    between atoms: _48  and  _50
REMARK   16  A    between atoms: _50  and  _51
REMARK   17  A    between atoms: _50  and  _53
REMARK   18  A    between atoms: _53  and  _54
REMARK   19  A    between atoms: _59  and  _61
REMARK   20  A    between atoms: _61  and  _62
REMARK   21  A    between atoms: _61  and  _64
REMARK   22  A    between atoms: _64  and  _65
REMARK   23  A    between atoms: _67  and  _69
REMARK   24  A    between atoms: _69  and  _70
REMARK   25  A    between atoms: _69  and  _72
REMARK   26  A    between atoms: _72  and  _73
REMARK   27  A    between atoms: _78  and  _80
REMARK   28  A    between atoms: _80  and  _81
REMARK   29  A    between atoms: _80  and  _83
REMARK   30  A    between atoms: _83  and  _84
REMARK   31  A    between atoms: _89  and  _91
REMARK   32  A    between atoms: _91  and  _92
REMARK   33  A    between atoms: _91  and  _94
REMARK   34  A    between atoms: _94  and  _95
REMARK   35  A    between atoms: _101  and  _103
REMARK   36  A    between atoms: _103  and  _104
REMARK   37  A    between atoms: _103  and  _106
REMARK   38  A    between atoms: _106  and  _107
REMARK   39  A    between atoms: _107  and  _108
REMARK   40  A    between atoms: _113  and  _115
REMARK   41  A    between atoms: _115  and  _116
REMARK   42  A    between atoms: _115  and  _118
REMARK   43  A    between atoms: _118  and  _119
REMARK   44  A    between atoms: _125  and  _127
REMARK   45  A    between atoms: _138  and  _141
REMARK   46  A    between atoms: _141  and  _142
REMARK   47  A    between atoms: _150  and  _151
REMARK   48  A    between atoms: _159  and  _161
REMARK   49  A    between atoms: _161  and  _162
REMARK   50  A    between atoms: _161  and  _164
REMARK   51  A    between atoms: _164  and  _165
REMARK   52  A    between atoms: _165  and  _166
REMARK   53  A    between atoms: _169  and  _171
REMARK   54  A    between atoms: _171  and  _172
REMARK   55  A    between atoms: _171  and  _174
REMARK   56  A    between atoms: _174  and  _175
REMARK   57  A    between atoms: _180  and  _182
REMARK   58  A    between atoms: _182  and  _183
REMARK   59  A    between atoms: _182  and  _185
REMARK   60  A    between atoms: _185  and  _186
REMARK   61  A    between atoms: _186  and  _187
REMARK   62  A    between atoms: _190  and  _192
REMARK   63  A    between atoms: _192  and  _193
REMARK   64  A    between atoms: _192  and  _195
REMARK   65  A    between atoms: _195  and  _196
REMARK   66  A    between atoms: _199  and  _201
REMARK   67  A    between atoms: _201  and  _202
REMARK   68  A    between atoms: _201  and  _204
REMARK   69  A    between atoms: _204  and  _205
REMARK   70  A    between atoms: _206  and  ZN_440
REMARK   71  A    between atoms: _210  and  _212
REMARK   72  A    between atoms: _212  and  _213
REMARK   73  A    between atoms: _212  and  _215
REMARK   74  A    between atoms: _218  and  _220
REMARK   75  A    between atoms: _220  and  _221
REMARK   76  A    between atoms: _224  and  _226
REMARK   77  A    between atoms: _226  and  _227
REMARK   78  A    between atoms: _226  and  _229
REMARK   79  A    between atoms: _229  and  _230
REMARK   80  A    between atoms: _235  and  _237
REMARK   81  A    between atoms: _237  and  _238
REMARK   82  A    between atoms: _237  and  _240
REMARK   83  A    between atoms: _240  and  _241
REMARK   84  A    between atoms: _244  and  _246
REMARK   85  A    between atoms: _246  and  _247
REMARK   86  A    between atoms: _250  and  _252
REMARK   87  A    between atoms: _252  and  _253
REMARK   88  A    between atoms: _256  and  _258
REMARK   89  A    between atoms: _258  and  _259
REMARK   90  A    between atoms: _258  and  _261
REMARK   91  A    between atoms: _261  and  _262
REMARK   92  A    between atoms: _264  and  _266
REMARK   93  A    between atoms: _266  and  _267
REMARK   94  A    between atoms: _266  and  _269
REMARK   95  A    between atoms: _269  and  _270
REMARK   96  A    between atoms: _273  and  _275
REMARK   97  A    between atoms: _275  and  _276
REMARK   98  A    between atoms: _279  and  _281
REMARK   99  A    between atoms: _281  and  _282
REMARK  100  A    between atoms: _281  and  _284
REMARK  101  A    between atoms: _287  and  _289
REMARK  102  A    between atoms: _289  and  _290
REMARK  103  A    between atoms: _289  and  _292
REMARK  104  A    between atoms: _292  and  _293
REMARK  105  A    between atoms: _296  and  _298
REMARK  106  A    between atoms: _298  and  _299
REMARK  107  A    between atoms: _301  and  _303
REMARK  108  A    between atoms: _303  and  _304
REMARK  109  A    between atoms: _306  and  _308
REMARK  110  A    between atoms: _308  and  _309
REMARK  111  A    between atoms: _308  and  _311
REMARK  112  A    between atoms: _311  and  _312
REMARK  113  A    between atoms: _314  and  _316
REMARK  114  A    between atoms: _316  and  _317
REMARK  115  A    between atoms: _316  and  _319
REMARK  116  A    between atoms: _319  and  _320
REMARK  117  A    between atoms: _323  and  _325
REMARK  118  A    between atoms: _325  and  _326
REMARK  119  A    between atoms: _325  and  _328
REMARK  120  A    between atoms: _328  and  _329
REMARK  121  A    between atoms: _332  and  _334
REMARK  122  A    between atoms: _334  and  _335
REMARK  123  A    between atoms: _334  and  _337
REMARK  124  A    between atoms: _337  and  _338
REMARK  125  A    between atoms: _344  and  _345
REMARK  126  A    between atoms: _351  and  _352
REMARK  127  A    between atoms: _357  and  _359
REMARK  128  A    between atoms: _359  and  _360
REMARK  129  A    between atoms: _359  and  _362
REMARK  130  A    between atoms: _362  and  _363
REMARK  131  A    between atoms: _366  and  _368
REMARK  132  A    between atoms: _368  and  _369
REMARK  133  A    between atoms: _368  and  _371
REMARK  134  A    between atoms: _371  and  _372
REMARK  135  A    between atoms: _377  and  _378
REMARK  136  A    between atoms: _380  and  _382
REMARK  137  A    between atoms: _382  and  _383
REMARK  138  A    between atoms: _382  and  _385
REMARK  139  A    between atoms: _385  and  _386
REMARK  140  A    between atoms: _388  and  _390
REMARK  141  A    between atoms: _390  and  _391
REMARK  142  A    between atoms: _390  and  _393
REMARK  143  A    between atoms: _396  and  _398
REMARK  144  A    between atoms: _398  and  _399
REMARK  145  A    between atoms: _398  and  _401
REMARK  146  A    between atoms: _401  and  _402
REMARK  147  A    between atoms: _412  and  _414
REMARK  148  A    between atoms: _414  and  _415
REMARK  149  A    between atoms: _414  and  _417
REMARK  150  A    between atoms: _417  and  _418
REMARK  151  A    between atoms: _423  and  _425
REMARK  152  A    between atoms: _425  and  _426
REMARK  153  A    between atoms: _425  and  _428
REMARK  154  A    between atoms: _428  and  _429
REMARK  155  A    between atoms: _429  and  _430
REMARK  156  A    between atoms: _430  and  _431
REMARK                            x       y       z     vdW  Elec       q    Type
REMARK                         _______ _______ _______ _____ _____    ______ ____
ROOT
ATOM      1  C   HIS A   1      23.356  38.025  12.328  0.00  0.00    +0.239 C 
ATOM      2  O   HIS A   1      23.905  38.555  13.308  0.00  0.00    -0.274 OA
ATOM      3  N   SER A   2      23.182  36.713  12.196  0.00  0.00    -0.296 N 
ATOM      4  H   SER A   2      22.868  36.364  11.268  0.00  0.00    +0.150 HD
ENDROOT
BRANCH   1   5
ATOM      5  CA  HIS A   1      22.938  38.900  11.140  0.00  0.00    +0.151 C 
BRANCH   5   6
ATOM      6  N   HIS A   1      22.616  38.130   9.910  0.00  0.00    -0.238 NA
ATOM      7  H   HIS A   1      21.650  37.765   9.789  0.00  0.00    +0.142 HD
ENDBRANCH   5   6
BRANCH   5   8
ATOM      8  CB  HIS A   1      21.747  39.759  11.543  0.00  0.00    +0.074 C 
BRANCH   8   9
ATOM      9  CG  HIS A   1      20.512  38.966  11.790  0.00  0.00    +0.082 A 
ATOM     10  ND1 HIS A   1      20.196  38.438  13.059  0.00  0.00    -0.227 NA
ATOM     11  CE1 HIS A   1      19.026  37.743  12.958  0.00  0.00    +0.199 A 
ATOM     12  NE2 HIS A   1      18.593  37.816  11.641  0.00  0.00    -0.221 NA
ATOM     13  CD2 HIS A   1      19.480  38.566  10.915  0.00  0.00    +0.115 A 
ENDBRANCH   8   9
ENDBRANCH   5   8
ENDBRANCH   1   5
BRANCH   3  14
ATOM     14  CA  SER A   2      23.394  35.729  13.241  0.00  0.00    +0.166 C 
BRANCH  14  15
ATOM     15  CB  SER A   2      23.280  34.334  12.648  0.00  0.00    +0.229 C 
ATOM     16  OG  SER A   2      23.238  34.150  11.394  0.00  0.00    -0.286 OA
ENDBRANCH  14  15
BRANCH  14  17
ATOM     17  C   SER A   2      22.270  35.931  14.277  0.00  0.00    +0.165 C 
BRANCH  17  18
ATOM     18  O   SER A   2      22.579  35.136  15.429  0.00  0.00    -0.380 OA
ATOM     19  H   SER A   2      21.868  35.251  16.108  0.00  0.00    +0.211 HD
ENDBRANCH  17  18
ENDBRANCH  14  17
ENDBRANCH   3  14
TORSDOF 8
REMARK  Name = ../refined-set-2016/4wup/4wup_pocket.pdb
REMARK  156 active torsions:
REMARK  status: ('A' for Active; 'I' for Inactive)
REMARK    1  A    between atoms: _1  and  _5
REMARK    2  A    between atoms: _5  and  _6
REMARK    3  A    between atoms: _5  and  _8
REMARK    4  A    between atoms: _8  and  _9
REMARK    5  A    between atoms: _19  and  _21
REMARK    6  A    between atoms: _21  and  _22
REMARK    7  A    between atoms: _21  and  _24
REMARK    8  A    between atoms: _24  and  _25
REMARK    9  A    between atoms: _30  and  _31
REMARK   10  A    between atoms: _33  and  _35
REMARK   11  A    between atoms: _35  and  _36
REMARK   12  A    between atoms: _35  and  _38
REMARK   13  A    between atoms: _38  and  _39
REMARK   14  A    between atoms: _42  and  _43
REMARK   15  A    between atoms: _48  and  _50
REMARK   16  A    between atoms: _50  and  _51
REMARK   17  A    between atoms: _50  and  _53
REMARK   18  A    between atoms: _53  and  _54
REMARK   19  A    between atoms: _59  and  _61
REMARK   20  A    between atoms: _61  and  _62
REMARK   21  A    between atoms: _61  and  _64
REMARK   22  A    between atoms: _64  and  _65
REMARK   23  A    between atoms: _67  and  _69
REMARK   24  A    between atoms: _69  and  _70
REMARK   25  A    between atoms: _69  and  _72
REMARK   26  A    between atoms: _72  and  _73
REMARK   27  A    between atoms: _78  and  _80
REMARK   28  A    between atoms: _80  and  _81
REMARK   29  A    between atoms: _80  and  _83
REMARK   30  A    between atoms: _83  and  _84
REMARK   31  A    between atoms: _89  and  _91
REMARK   32  A    between atoms: _91  and  _92
REMARK   33  A    between atoms: _91  and  _94
REMARK   34  A    between atoms: _94  and  _95
REMARK   35  A    between atoms: _101  and  _103
REMARK   36  A    between atoms: _103  and  _104
REMARK   37  A    between atoms: _103  and  _106
REMARK   38  A    between atoms: _106  and  _107
REMARK   39  A    between atoms: _107  and  _108
REMARK   40  A    between atoms: _113  and  _115
REMARK   41  A    between atoms: _115  and  _116
REMARK   42  A    between atoms: _115  and  _118
REMARK   43  A    between atoms: _118  and  _119
REMARK   44  A    between atoms: _125  and  _127
REMARK   45  A    between atoms: _138  and  _141
REMARK   46  A    between atoms: _141  and  _142
REMARK   47  A    between atoms: _150  and  _151
REMARK   48  A    between atoms: _159  and  _161
REMARK   49  A    between atoms: _161  and  _162
REMARK   50  A    between atoms: _161  and  _164
REMARK   51  A    between atoms: _164  and  _165
REMARK   52  A    between atoms: _165  and  _166
REMARK   53  A    between atoms: _169  and  _171
REMARK   54  A    between atoms: _171  and  _172
REMARK   55  A    between atoms: _171  and  _174
REMARK   56  A    between atoms: _174  and  _175
REMARK   57  A    between atoms: _180  and  _182
REMARK   58  A    between atoms: _182  and  _183
REMARK   59  A    between atoms: _182  and  _185
REMARK   60  A    between atoms: _185  and  _186
REMARK   61  A    between atoms: _186  and  _187
REMARK   62  A    between atoms: _190  and  _192
REMARK   63  A    between atoms: _192  and  _193
REMARK   64  A    between atoms: _192  and  _195
REMARK   65  A    between atoms: _195  and  _196
REMARK   66  A    between atoms: _199  and  _201
REMARK   67  A    between atoms: _201  and  _202
REMARK   68  A    between atoms: _201  and  _204
REMARK   69  A    between atoms: _204  and  _205
REMARK   70  A    between atoms: _206  and  ZN_440
REMARK   71  A    between atoms: _210  and  _212
REMARK   72  A    between atoms: _212  and  _213
REMARK   73  A    between atoms: _212  and  _215
REMARK   74  A    between atoms: _218  and  _220
REMARK   75  A    between atoms: _220  and  _221
REMARK   76  A    between atoms: _224  and  _226
REMARK   77  A    between atoms: _226  and  _227
REMARK   78  A    between atoms: _226  and  _229
REMARK   79  A    between atoms: _229  and  _230
REMARK   80  A    between atoms: _235  and  _237
REMARK   81  A    between atoms: _237  and  _238
REMARK   82  A    between atoms: _237  and  _240
REMARK   83  A    between atoms: _240  and  _241
REMARK   84  A    between atoms: _244  and  _246
REMARK   85  A    between atoms: _246  and  _247
REMARK   86  A    between atoms: _250  and  _252
REMARK   87  A    between atoms: _252  and  _253
REMARK   88  A    between atoms: _256  and  _258
REMARK   89  A    between atoms: _258  and  _259
REMARK   90  A    between atoms: _258  and  _261
REMARK   91  A    between atoms: _261  and  _262
REMARK   92  A    between atoms: _264  and  _266
REMARK   93  A    between atoms: _266  and  _267
REMARK   94  A    between atoms: _266  and  _269
REMARK   95  A    between atoms: _269  and  _270
REMARK   96  A    between atoms: _273  and  _275
REMARK   97  A    between atoms: _275  and  _276
REMARK   98  A    between atoms: _279  and  _281
REMARK   99  A    between atoms: _281  and  _282
REMARK  100  A    between atoms: _281  and  _284
REMARK  101  A    between atoms: _287  and  _289
REMARK  102  A    between atoms: _289  and  _290
REMARK  103  A    between atoms: _289  and  _292
REMARK  104  A    between atoms: _292  and  _293
REMARK  105  A    between atoms: _296  and  _298
REMARK  106  A    between atoms: _298  and  _299
REMARK  107  A    between atoms: _301  and  _303
REMARK  108  A    between atoms: _303  and  _304
REMARK  109  A    between atoms: _306  and  _308
REMARK  110  A    between atoms: _308  and  _309
REMARK  111  A    between atoms: _308  and  _311
REMARK  112  A    between atoms: _311  and  _312
REMARK  113  A    between atoms: _314  and  _316
REMARK  114  A    between atoms: _316  and  _317
REMARK  115  A    between atoms: _316  and  _319
REMARK  116  A    between atoms: _319  and  _320
REMARK  117  A    between atoms: _323  and  _325
REMARK  118  A    between atoms: _325  and  _326
REMARK  119  A    between atoms: _325  and  _328
REMARK  120  A    between atoms: _328  and  _329
REMARK  121  A    between atoms: _332  and  _334
REMARK  122  A    between atoms: _334  and  _335
REMARK  123  A    between atoms: _334  and  _337
REMARK  124  A    between atoms: _337  and  _338
REMARK  125  A    between atoms: _344  and  _345
REMARK  126  A    between atoms: _351  and  _352
REMARK  127  A    between atoms: _357  and  _359
REMARK  128  A    between atoms: _359  and  _360
REMARK  129  A    between atoms: _359  and  _362
REMARK  130  A    between atoms: _362  and  _363
REMARK  131  A    between atoms: _366  and  _368
REMARK  132  A    between atoms: _368  and  _369
REMARK  133  A    between atoms: _368  and  _371
REMARK  134  A    between atoms: _371  and  _372
REMARK  135  A    between atoms: _377  and  _378
REMARK  136  A    between atoms: _380  and  _382
REMARK  137  A    between atoms: _382  and  _383
REMARK  138  A    between atoms: _382  and  _385
REMARK  139  A    between atoms: _385  and  _386
REMARK  140  A    between atoms: _388  and  _390
REMARK  141  A    between atoms: _390  and  _391
REMARK  142  A    between atoms: _390  and  _393
REMARK  143  A    between atoms: _396  and  _398
REMARK  144  A    between atoms: _398  and  _399
REMARK  145  A    between atoms: _398  and  _401
REMARK  146  A    between atoms: _401  and  _402
REMARK  147  A    between atoms: _412  and  _414
REMARK  148  A    between atoms: _414  and  _415
REMARK  149  A    between atoms: _414  and  _417
REMARK  150  A    between atoms: _417  and  _418
REMARK  151  A    between atoms: _423  and  _425
REMARK  152  A    between atoms: _425  and  _426
REMARK  153  A    between atoms: _425  and  _428
REMARK  154  A    between atoms: _428  and  _429
REMARK  155  A    between atoms: _429  and  _430
REMARK  156  A    between atoms: _430  and  _431
REMARK                            x       y       z     vdW  Elec       q    Type
REMARK                         _______ _______ _______ _____ _____    ______ ____
ROOT
ATOM      1  CB  HIS A   1      18.808  29.917  13.795  0.00  0.00    +0.072 C 
ENDROOT
BRANCH   1   2
ATOM      2  CG  HIS A   1      18.331  31.315  13.798  0.00  0.00    +0.082 A 
ATOM      3  CD2 HIS A   1      18.840  32.450  14.417  0.00  0.00    +0.115 A 
ATOM      4  NE2 HIS A   1      18.003  33.473  14.134  0.00  0.00    -0.221 NA
ATOM      5  CE1 HIS A   1      17.034  33.021  13.327  0.00  0.00    +0.199 A 
ATOM      6  ND1 HIS A   1      17.226  31.699  13.140  0.00  0.00    -0.227 NA
ENDBRANCH   1   2
BRANCH   1   7
ATOM      7  CA  HIS A   1      20.196  29.722  14.429  0.00  0.00    +0.139 C 
BRANCH   7   8
ATOM      8  N   HIS A   1      21.235  30.363  13.600  0.00  0.00    -0.239 NA
ATOM      9  H   HIS A   1      21.360  30.024  12.625  0.00  0.00    +0.142 HD
ENDBRANCH   7   8
BRANCH   7  10
ATOM     10  C   HIS A   1      20.394  28.262  14.388  0.00  0.00    +0.224 C 
ATOM     11  O   HIS A   1      20.809  27.766  13.329  0.00  0.00    -0.287 OA
ENDBRANCH   7  10
ENDBRANCH   1   7
TORSDOF 4
REMARK  Name = ../refined-set-2016/4wup/4wup_pocket.pdb
REMARK  156 active torsions:
REMARK  status: ('A' for Active; 'I' for Inactive)
REMARK    1  A    between atoms: _1  and  _5
REMARK    2  A    between atoms: _5  and  _6
REMARK    3  A    between atoms: _5  and  _8
REMARK    4  A    between atoms: _8  and  _9
REMARK    5  A    between atoms: _19  and  _21
REMARK    6  A    between atoms: _21  and  _22
REMARK    7  A    between atoms: _21  and  _24
REMARK    8  A    between atoms: _24  and  _25
REMARK    9  A    between atoms: _30  and  _31
REMARK   10  A    between atoms: _33  and  _35
REMARK   11  A    between atoms: _35  and  _36
REMARK   12  A    between atoms: _35  and  _38
REMARK   13  A    between atoms: _38  and  _39
REMARK   14  A    between atoms: _42  and  _43
REMARK   15  A    between atoms: _48  and  _50
REMARK   16  A    between atoms: _50  and  _51
REMARK   17  A    between atoms: _50  and  _53
REMARK   18  A    between atoms: _53  and  _54
REMARK   19  A    between atoms: _59  and  _61
REMARK   20  A    between atoms: _61  and  _62
REMARK   21  A    between atoms: _61  and  _64
REMARK   22  A    between atoms: _64  and  _65
REMARK   23  A    between atoms: _67  and  _69
REMARK   24  A    between atoms: _69  and  _70
REMARK   25  A    between atoms: _69  and  _72
REMARK   26  A    between atoms: _72  and  _73
REMARK   27  A    between atoms: _78  and  _80
REMARK   28  A    between atoms: _80  and  _81
REMARK   29  A    between atoms: _80  and  _83
REMARK   30  A    between atoms: _83  and  _84
REMARK   31  A    between atoms: _89  and  _91
REMARK   32  A    between atoms: _91  and  _92
REMARK   33  A    between atoms: _91  and  _94
REMARK   34  A    between atoms: _94  and  _95
REMARK   35  A    between atoms: _101  and  _103
REMARK   36  A    between atoms: _103  and  _104
REMARK   37  A    between atoms: _103  and  _106
REMARK   38  A    between atoms: _106  and  _107
REMARK   39  A    between atoms: _107  and  _108
REMARK   40  A    between atoms: _113  and  _115
REMARK   41  A    between atoms: _115  and  _116
REMARK   42  A    between atoms: _115  and  _118
REMARK   43  A    between atoms: _118  and  _119
REMARK   44  A    between atoms: _125  and  _127
REMARK   45  A    between atoms: _138  and  _141
REMARK   46  A    between atoms: _141  and  _142
REMARK   47  A    between atoms: _150  and  _151
REMARK   48  A    between atoms: _159  and  _161
REMARK   49  A    between atoms: _161  and  _162
REMARK   50  A    between atoms: _161  and  _164
REMARK   51  A    between atoms: _164  and  _165
REMARK   52  A    between atoms: _165  and  _166
REMARK   53  A    between atoms: _169  and  _171
REMARK   54  A    between atoms: _171  and  _172
REMARK   55  A    between atoms: _171  and  _174
REMARK   56  A    between atoms: _174  and  _175
REMARK   57  A    between atoms: _180  and  _182
REMARK   58  A    between atoms: _182  and  _183
REMARK   59  A    between atoms: _182  and  _185
REMARK   60  A    between atoms: _185  and  _186
REMARK   61  A    between atoms: _186  and  _187
REMARK   62  A    between atoms: _190  and  _192
REMARK   63  A    between atoms: _192  and  _193
REMARK   64  A    between atoms: _192  and  _195
REMARK   65  A    between atoms: _195  and  _196
REMARK   66  A    between atoms: _199  and  _201
REMARK   67  A    between atoms: _201  and  _202
REMARK   68  A    between atoms: _201  and  _204
REMARK   69  A    between atoms: _204  and  _205
REMARK   70  A    between atoms: _206  and  ZN_440
REMARK   71  A    between atoms: _210  and  _212
REMARK   72  A    between atoms: _212  and  _213
REMARK   73  A    between atoms: _212  and  _215
REMARK   74  A    between atoms: _218  and  _220
REMARK   75  A    between atoms: _220  and  _221
REMARK   76  A    between atoms: _224  and  _226
REMARK   77  A    between atoms: _226  and  _227
REMARK   78  A    between atoms: _226  and  _229
REMARK   79  A    between atoms: _229  and  _230
REMARK   80  A    between atoms: _235  and  _237
REMARK   81  A    between atoms: _237  and  _238
REMARK   82  A    between atoms: _237  and  _240
REMARK   83  A    between atoms: _240  and  _241
REMARK   84  A    between atoms: _244  and  _246
REMARK   85  A    between atoms: _246  and  _247
REMARK   86  A    between atoms: _250  and  _252
REMARK   87  A    between atoms: _252  and  _253
REMARK   88  A    between atoms: _256  and  _258
REMARK   89  A    between atoms: _258  and  _259
REMARK   90  A    between atoms: _258  and  _261
REMARK   91  A    between atoms: _261  and  _262
REMARK   92  A    between atoms: _264  and  _266
REMARK   93  A    between atoms: _266  and  _267
REMARK   94  A    between atoms: _266  and  _269
REMARK   95  A    between atoms: _269  and  _270
REMARK   96  A    between atoms: _273  and  _275
REMARK   97  A    between atoms: _275  and  _276
REMARK   98  A    between atoms: _279  and  _281
REMARK   99  A    between atoms: _281  and  _282
REMARK  100  A    between atoms: _281  and  _284
REMARK  101  A    between atoms: _287  and  _289
REMARK  102  A    between atoms: _289  and  _290
REMARK  103  A    between atoms: _289  and  _292
REMARK  104  A    between atoms: _292  and  _293
REMARK  105  A    between atoms: _296  and  _298
REMARK  106  A    between atoms: _298  and  _299
REMARK  107  A    between atoms: _301  and  _303
REMARK  108  A    between atoms: _303  and  _304
REMARK  109  A    between atoms: _306  and  _308
REMARK  110  A    between atoms: _308  and  _309
REMARK  111  A    between atoms: _308  and  _311
REMARK  112  A    between atoms: _311  and  _312
REMARK  113  A    between atoms: _314  and  _316
REMARK  114  A    between atoms: _316  and  _317
REMARK  115  A    between atoms: _316  and  _319
REMARK  116  A    between atoms: _319  and  _320
REMARK  117  A    between atoms: _323  and  _325
REMARK  118  A    between atoms: _325  and  _326
REMARK  119  A    between atoms: _325  and  _328
REMARK  120  A    between atoms: _328  and  _329
REMARK  121  A    between atoms: _332  and  _334
REMARK  122  A    between atoms: _334  and  _335
REMARK  123  A    between atoms: _334  and  _337
REMARK  124  A    between atoms: _337  and  _338
REMARK  125  A    between atoms: _344  and  _345
REMARK  126  A    between atoms: _351  and  _352
REMARK  127  A    between atoms: _357  and  _359
REMARK  128  A    between atoms: _359  and  _360
REMARK  129  A    between atoms: _359  and  _362
REMARK  130  A    between atoms: _362  and  _363
REMARK  131  A    between atoms: _366  and  _368
REMARK  132  A    between atoms: _368  and  _369
REMARK  133  A    between atoms: _368  and  _371
REMARK  134  A    between atoms: _371  and  _372
REMARK  135  A    between atoms: _377  and  _378
REMARK  136  A    between atoms: _380  and  _382
REMARK  137  A    between atoms: _382  and  _383
REMARK  138  A    between atoms: _382  and  _385
REMARK  139  A    between atoms: _385  and  _386
REMARK  140  A    between atoms: _388  and  _390
REMARK  141  A    between atoms: _390  and  _391
REMARK  142  A    between atoms: _390  and  _393
REMARK  143  A    between atoms: _396  and  _398
REMARK  144  A    between atoms: _398  and  _399
REMARK  145  A    between atoms: _398  and  _401
REMARK  146  A    between atoms: _401  and  _402
REMARK  147  A    between atoms: _412  and  _414
REMARK  148  A    between atoms: _414  and  _415
REMARK  149  A    between atoms: _414  and  _417
REMARK  150  A    between atoms: _417  and  _418
REMARK  151  A    between atoms: _423  and  _425
REMARK  152  A    between atoms: _425  and  _426
REMARK  153  A    between atoms: _425  and  _428
REMARK  154  A    between atoms: _428  and  _429
REMARK  155  A    between atoms: _429  and  _430
REMARK  156  A    between atoms: _430  and  _431
REMARK                            x       y       z     vdW  Elec       q    Type
REMARK                         _______ _______ _______ _____ _____    ______ ____
ROOT
ATOM      1  CB  ASN A   1      15.724  25.156  13.320  0.00  0.00    +0.110 C 
ENDROOT
BRANCH   1   2
ATOM      2  CG  ASN A   1      15.621  26.636  12.991  0.00  0.00    +0.221 C 
ATOM      3  OD1 ASN A   1      15.490  27.501  13.876  0.00  0.00    -0.275 OA
ATOM      4  ND2 ASN A   1      15.725  26.931  11.700  0.00  0.00    -0.329 N 
ATOM      5 HD21 ASN A   1      15.698  27.923  11.390  0.00  0.00    +0.145 HD
ATOM      6 HD22 ASN A   1      15.833  26.170  11.000  0.00  0.00    +0.145 HD
ENDBRANCH   1   2
BRANCH   1   7
ATOM      7  CA  ASN A   1      16.378  24.886  14.713  0.00  0.00    +0.142 C 
BRANCH   7   8
ATOM      8  N   ASN A   1      17.826  25.215  14.665  0.00  0.00    -0.239 NA
ATOM      9  H   ASN A   1      18.364  24.996  13.802  0.00  0.00    +0.142 HD
ENDBRANCH   7   8
BRANCH   7  10
ATOM     10  C   ASN A   1      16.103  23.468  15.127  0.00  0.00    +0.225 C 
ATOM     11  O   ASN A   1      16.935  22.573  14.858  0.00  0.00    -0.287 OA
ENDBRANCH   7  10
ENDBRANCH   1   7
TORSDOF 4
REMARK  Name = ../refined-set-2016/4wup/4wup_pocket.pdb
REMARK  156 active torsions:
REMARK  status: ('A' for Active; 'I' for Inactive)
REMARK    1  A    between atoms: _1  and  _5
REMARK    2  A    between atoms: _5  and  _6
REMARK    3  A    between atoms: _5  and  _8
REMARK    4  A    between atoms: _8  and  _9
REMARK    5  A    between atoms: _19  and  _21
REMARK    6  A    between atoms: _21  and  _22
REMARK    7  A    between atoms: _21  and  _24
REMARK    8  A    between atoms: _24  and  _25
REMARK    9  A    between atoms: _30  and  _31
REMARK   10  A    between atoms: _33  and  _35
REMARK   11  A    between atoms: _35  and  _36
REMARK   12  A    between atoms: _35  and  _38
REMARK   13  A    between atoms: _38  and  _39
REMARK   14  A    between atoms: _42  and  _43
REMARK   15  A    between atoms: _48  and  _50
REMARK   16  A    between atoms: _50  and  _51
REMARK   17  A    between atoms: _50  and  _53
REMARK   18  A    between atoms: _53  and  _54
REMARK   19  A    between atoms: _59  and  _61
REMARK   20  A    between atoms: _61  and  _62
REMARK   21  A    between atoms: _61  and  _64
REMARK   22  A    between atoms: _64  and  _65
REMARK   23  A    between atoms: _67  and  _69
REMARK   24  A    between atoms: _69  and  _70
REMARK   25  A    between atoms: _69  and  _72
REMARK   26  A    between atoms: _72  and  _73
REMARK   27  A    between atoms: _78  and  _80
REMARK   28  A    between atoms: _80  and  _81
REMARK   29  A    between atoms: _80  and  _83
REMARK   30  A    between atoms: _83  and  _84
REMARK   31  A    between atoms: _89  and  _91
REMARK   32  A    between atoms: _91  and  _92
REMARK   33  A    between atoms: _91  and  _94
REMARK   34  A    between atoms: _94  and  _95
REMARK   35  A    between atoms: _101  and  _103
REMARK   36  A    between atoms: _103  and  _104
REMARK   37  A    between atoms: _103  and  _106
REMARK   38  A    between atoms: _106  and  _107
REMARK   39  A    between atoms: _107  and  _108
REMARK   40  A    between atoms: _113  and  _115
REMARK   41  A    between atoms: _115  and  _116
REMARK   42  A    between atoms: _115  and  _118
REMARK   43  A    between atoms: _118  and  _119
REMARK   44  A    between atoms: _125  and  _127
REMARK   45  A    between atoms: _138  and  _141
REMARK   46  A    between atoms: _141  and  _142
REMARK   47  A    between atoms: _150  and  _151
REMARK   48  A    between atoms: _159  and  _161
REMARK   49  A    between atoms: _161  and  _162
REMARK   50  A    between atoms: _161  and  _164
REMARK   51  A    between atoms: _164  and  _165
REMARK   52  A    between atoms: _165  and  _166
REMARK   53  A    between atoms: _169  and  _171
REMARK   54  A    between atoms: _171  and  _172
REMARK   55  A    between atoms: _171  and  _174
REMARK   56  A    between atoms: _174  and  _175
REMARK   57  A    between atoms: _180  and  _182
REMARK   58  A    between atoms: _182  and  _183
REMARK   59  A    between atoms: _182  and  _185
REMARK   60  A    between atoms: _185  and  _186
REMARK   61  A    between atoms: _186  and  _187
REMARK   62  A    between atoms: _190  and  _192
REMARK   63  A    between atoms: _192  and  _193
REMARK   64  A    between atoms: _192  and  _195
REMARK   65  A    between atoms: _195  and  _196
REMARK   66  A    between atoms: _199  and  _201
REMARK   67  A    between atoms: _201  and  _202
REMARK   68  A    between atoms: _201  and  _204
REMARK   69  A    between atoms: _204  and  _205
REMARK   70  A    between atoms: _206  and  ZN_440
REMARK   71  A    between atoms: _210  and  _212
REMARK   72  A    between atoms: _212  and  _213
REMARK   73  A    between atoms: _212  and  _215
REMARK   74  A    between atoms: _218  and  _220
REMARK   75  A    between atoms: _220  and  _221
REMARK   76  A    between atoms: _224  and  _226
REMARK   77  A    between atoms: _226  and  _227
REMARK   78  A    between atoms: _226  and  _229
REMARK   79  A    between atoms: _229  and  _230
REMARK   80  A    between atoms: _235  and  _237
REMARK   81  A    between atoms: _237  and  _238
REMARK   82  A    between atoms: _237  and  _240
REMARK   83  A    between atoms: _240  and  _241
REMARK   84  A    between atoms: _244  and  _246
REMARK   85  A    between atoms: _246  and  _247
REMARK   86  A    between atoms: _250  and  _252
REMARK   87  A    between atoms: _252  and  _253
REMARK   88  A    between atoms: _256  and  _258
REMARK   89  A    between atoms: _258  and  _259
REMARK   90  A    between atoms: _258  and  _261
REMARK   91  A    between atoms: _261  and  _262
REMARK   92  A    between atoms: _264  and  _266
REMARK   93  A    between atoms: _266  and  _267
REMARK   94  A    between atoms: _266  and  _269
REMARK   95  A    between atoms: _269  and  _270
REMARK   96  A    between atoms: _273  and  _275
REMARK   97  A    between atoms: _275  and  _276
REMARK   98  A    between atoms: _279  and  _281
REMARK   99  A    between atoms: _281  and  _282
REMARK  100  A    between atoms: _281  and  _284
REMARK  101  A    between atoms: _287  and  _289
REMARK  102  A    between atoms: _289  and  _290
REMARK  103  A    between atoms: _289  and  _292
REMARK  104  A    between atoms: _292  and  _293
REMARK  105  A    between atoms: _296  and  _298
REMARK  106  A    between atoms: _298  and  _299
REMARK  107  A    between atoms: _301  and  _303
REMARK  108  A    between atoms: _303  and  _304
REMARK  109  A    between atoms: _306  and  _308
REMARK  110  A    between atoms: _308  and  _309
REMARK  111  A    between atoms: _308  and  _311
REMARK  112  A    between atoms: _311  and  _312
REMARK  113  A    between atoms: _314  and  _316
REMARK  114  A    between atoms: _316  and  _317
REMARK  115  A    between atoms: _316  and  _319
REMARK  116  A    between atoms: _319  and  _320
REMARK  117  A    between atoms: _323  and  _325
REMARK  118  A    between atoms: _325  and  _326
REMARK  119  A    between atoms: _325  and  _328
REMARK  120  A    between atoms: _328  and  _329
REMARK  121  A    between atoms: _332  and  _334
REMARK  122  A    between atoms: _334  and  _335
REMARK  123  A    between atoms: _334  and  _337
REMARK  124  A    between atoms: _337  and  _338
REMARK  125  A    between atoms: _344  and  _345
REMARK  126  A    between atoms: _351  and  _352
REMARK  127  A    between atoms: _357  and  _359
REMARK  128  A    between atoms: _359  and  _360
REMARK  129  A    between atoms: _359  and  _362
REMARK  130  A    between atoms: _362  and  _363
REMARK  131  A    between atoms: _366  and  _368
REMARK  132  A    between atoms: _368  and  _369
REMARK  133  A    between atoms: _368  and  _371
REMARK  134  A    between atoms: _371  and  _372
REMARK  135  A    between atoms: _377  and  _378
REMARK  136  A    between atoms: _380  and  _382
REMARK  137  A    between atoms: _382  and  _383
REMARK  138  A    between atoms: _382  and  _385
REMARK  139  A    between atoms: _385  and  _386
REMARK  140  A    between atoms: _388  and  _390
REMARK  141  A    between atoms: _390  and  _391
REMARK  142  A    between atoms: _390  and  _393
REMARK  143  A    between atoms: _396  and  _398
REMARK  144  A    between atoms: _398  and  _399
REMARK  145  A    between atoms: _398  and  _401
REMARK  146  A    between atoms: _401  and  _402
REMARK  147  A    between atoms: _412  and  _414
REMARK  148  A    between atoms: _414  and  _415
REMARK  149  A    between atoms: _414  and  _417
REMARK  150  A    between atoms: _417  and  _418
REMARK  151  A    between atoms: _423  and  _425
REMARK  152  A    between atoms: _425  and  _426
REMARK  153  A    between atoms: _425  and  _428
REMARK  154  A    between atoms: _428  and  _429
REMARK  155  A    between atoms: _429  and  _430
REMARK  156  A    between atoms: _430  and  _431
REMARK                            x       y       z     vdW  Elec       q    Type
REMARK                         _______ _______ _______ _____ _____    ______ ____
ROOT
ATOM      1  C   UNK A   4      21.057  31.153  19.149  0.00  0.00    +0.000 C 
ATOM      2  C   UNK A   4      21.784  32.043  20.123  0.00  0.00    +0.000 C 
ATOM      3  O   UNK A   4      21.527  31.911  21.368  0.00  0.00    +0.000 OA
ATOM      4  N   ALA A   5      22.733  32.851  19.608  0.00  0.00    +0.000 N 
ATOM      5  CA  ALA A   5      23.591  33.661  20.522  0.00  0.00    +0.000 C 
ATOM      6  C   ALA A   5      23.566  35.112  20.028  0.00  0.00    +0.000 C 
ATOM      7  N   UNK A   6      23.865  36.084  20.922  0.00  0.00    +0.000 N 
ATOM      8  H   UNK A   6      23.868  35.852  21.936  0.00  0.00    +0.000 HD
ATOM      9  C   UNK A   6      24.180  37.436  20.512  0.00  0.00    +0.000 C 
ATOM     10  C   UNK A   6      23.235  38.449  21.140  0.00  0.00    +0.000 C 
ATOM     11  C   UNK A   6      21.821  38.219  20.746  0.00  0.00    +0.000 A 
ATOM     12  C   UNK A   6      20.952  37.239  21.123  0.00  0.00    +0.000 A 
ATOM     13  N   UNK A   6      19.778  37.428  20.429  0.00  0.00    +0.000 N 
ATOM     14 ZN   UNK A   6      18.040  36.371  20.762  0.00  0.00    +0.000 Zn
ATOM     15  N   UNK A   4      18.260  34.603  19.713  0.00  0.00    +0.000 N 
ATOM     16  C   UNK A   4      17.369  33.680  19.367  0.00  0.00    +0.000 A 
ATOM     17  N   UNK A   4      18.042  32.672  18.801  0.00  0.00    +0.000 NA
ATOM     18  C   UNK A   4      19.362  33.011  18.724  0.00  0.00    +0.000 A 
ATOM     19  C   UNK A   4      19.500  34.192  19.348  0.00  0.00    +0.000 A 
ATOM     20  C   UNK A   6      19.941  38.502  19.583  0.00  0.00    +0.000 A 
ATOM     21  N   UNK A   6      21.200  38.963  19.724  0.00  0.00    +0.000 NA
ATOM     22  O   ALA A   5      23.227  35.372  18.838  0.00  0.00    +0.000 OA
ATOM     23  H   ALA A   5      22.866  32.909  18.578  0.00  0.00    +0.000 HD
ATOM     24  C   UNK A   4      20.410  32.067  18.106  0.00  0.00    +0.000 C 
ENDROOT
BRANCH  14  25
ATOM     25  N   UNK A   6      18.301  36.002  22.748  0.00  0.00    +0.000 N 
ATOM     26  C   UNK A   6      18.432  34.904  23.511  0.00  0.00    +0.000 A 
ATOM     27  C   UNK A   6      18.727  35.359  24.801  0.00  0.00    +0.000 A 
ATOM     28  N   UNK A   6      18.808  36.707  24.749  0.00  0.00    +0.000 NA
ATOM     29  C   UNK A   6      18.524  37.126  23.480  0.00  0.00    +0.000 A 
BRANCH  26  30
ATOM     30  C   UNK A   6      18.180  33.502  23.011  0.00  0.00    +0.000 C 
BRANCH  30  31
ATOM     31  C   UNK A   6      18.738  32.405  23.938  0.00  0.00    +0.000 C 
BRANCH  31  32
ATOM     32  C   UNK A   6      18.166  31.091  23.500  0.00  0.00    +0.000 C 
ATOM     33  N   UNK A   4      17.286  30.505  24.296  0.00  0.00    +0.000 N 
ATOM     34  H   UNK A   4      17.009  30.984  25.177  0.00  0.00    +0.000 HD
ATOM     35  O   UNK A   6      18.556  30.605  22.413  0.00  0.00    +0.000 OA
BRANCH  33  36
ATOM     36  C   UNK A   4      16.688  29.203  23.979  0.00  0.00    +0.000 C 
BRANCH  36  37
ATOM     37  C   UNK A   4      15.173  29.500  23.906  0.00  0.00    +0.000 C 
ATOM     38  O   UNK A   4      14.563  29.854  24.918  0.00  0.00    +0.000 OA
ATOM     39  N   ALA A   5      14.578  29.452  22.688  0.00  0.00    +0.000 N 
ATOM     40  H   ALA A   5      15.082  29.007  21.894  0.00  0.00    +0.000 HD
BRANCH  39  41
ATOM     41  CA  ALA A   5      13.244  30.011  22.463  0.00  0.00    +0.000 C 
ATOM     42  CB  ALA A   5      13.243  30.892  21.209  0.00  0.00    +0.000 C 
BRANCH  41  43
ATOM     43  C   ALA A   5      12.235  28.871  22.275  0.00  0.00    +0.000 C 
ATOM     44  N   UNK A   6      11.035  29.106  22.791  0.00  0.00    +0.000 N 
ATOM     45  H   UNK A   6      10.844  30.047  23.190  0.00  0.00    +0.000 HD
ATOM     46  O   ALA A   5      12.527  27.786  21.676  0.00  0.00    +0.000 OA
BRANCH  44  47
ATOM     47  C   UNK A   6       9.963  28.103  22.827  0.00  0.00    +0.000 C 
BRANCH  47  48
ATOM     48  C   UNK A   6       8.636  28.808  22.518  0.00  0.00    +0.000 C 
ATOM     49  O   UNK A   6       8.500  29.998  22.681  0.00  0.00    +0.000 OA
ENDBRANCH  47  48
BRANCH  47  50
ATOM     50  C   UNK A   6       9.828  27.542  24.272  0.00  0.00    +0.000 C 
BRANCH  50  51
ATOM     51  C   UNK A   6      11.139  27.105  24.937  0.00  0.00    +0.000 A 
ATOM     52  N   UNK A   6      12.049  27.997  25.433  0.00  0.00    +0.000 NA
ATOM     53  C   UNK A   6      13.064  27.302  26.018  0.00  0.00    +0.000 A 
ATOM     54  N   UNK A   6      12.782  25.995  25.906  0.00  0.00    +0.000 NA
ATOM     55  C   UNK A   6      11.590  25.852  25.298  0.00  0.00    +0.000 A 
ENDBRANCH  50  51
ENDBRANCH  47  50
ENDBRANCH  44  47
ENDBRANCH  41  43
ENDBRANCH  39  41
ENDBRANCH  36  37
BRANCH  36  56
ATOM     56  C   UNK A   4      17.079  28.144  25.041  0.00  0.00    +0.000 C 
ATOM     57  C   UNK A   4      18.617  28.108  25.304  0.00  0.00    +0.000 C 
ATOM     58  C   UNK A   4      16.480  26.813  24.621  0.00  0.00    +0.000 C 
ENDBRANCH  36  56
ENDBRANCH  33  36
ENDBRANCH  31  32
BRANCH  31  59
ATOM     59  N   UNK A   6      20.256  32.397  23.844  0.00  0.00    +0.000 N 
ATOM     60  C   LEU A   2      20.986  32.617  24.918  0.00  0.00    +0.000 C 
ATOM     61  O   LEU A   2      20.501  32.872  26.060  0.00  0.00    +0.000 OA
ATOM     62  H   UNK A   6      20.718  32.217  22.930  0.00  0.00    +0.000 HD
BRANCH  60  63
ATOM     63  CA  LEU A   2      22.492  32.452  24.758  0.00  0.00    +0.000 C 
BRANCH  63  64
ATOM     64  N   LEU A   2      23.115  33.593  25.406  0.00  0.00    +0.000 N 
ATOM     65  H   LEU A   2      23.245  33.572  26.438  0.00  0.00    +0.000 HD
ATOM     66  C   GLU A   1      23.525  34.663  24.732  0.00  0.00    +0.000 C 
ATOM     67  O   GLU A   1      23.507  34.764  23.486  0.00  0.00    +0.000 OA
BRANCH  66  68
ATOM     68  CA  GLU A   1      24.134  35.759  25.574  0.00  0.00    +0.000 C 
BRANCH  68  69
ATOM     69  N   GLU A   1      25.340  36.267  24.909  0.00  0.00    +0.000 NA
ATOM     70  H   GLU A   1      25.414  36.204  23.874  0.00  0.00    +0.000 HD
ENDBRANCH  68  69
BRANCH  68  71
ATOM     71  CB  GLU A   1      23.168  36.911  25.793  0.00  0.00    +0.000 C 
BRANCH  71  72
ATOM     72  CG  GLU A   1      21.883  36.535  26.586  0.00  0.00    +0.000 C 
BRANCH  72  73
ATOM     73  CD  GLU A   1      21.079  37.803  26.952  0.00  0.00    +0.000 C 
ATOM     74  OE2 GLU A   1      21.728  38.878  27.127  0.00  0.00    +0.000 OA
ATOM     75  OE1 GLU A   1      19.823  37.744  27.064  0.00  0.00    +0.000 OA
ENDBRANCH  72  73
ENDBRANCH  71  72
ENDBRANCH  68  71
ENDBRANCH  66  68
ENDBRANCH  63  64
BRANCH  63  76
ATOM     76  CB  LEU A   2      23.013  31.170  25.408  0.00  0.00    +0.000 C 
BRANCH  76  77
ATOM     77  CG  LEU A   2      22.175  29.884  25.251  0.00  0.00    +0.000 C 
ATOM     78  CD2 LEU A   2      22.626  28.815  26.247  0.00  0.00    +0.000 C 
ATOM     79  CD1 LEU A   2      22.260  29.451  23.733  0.00  0.00    +0.000 C 
ENDBRANCH  76  77
ENDBRANCH  63  76
ENDBRANCH  60  63
ENDBRANCH  31  59
ENDBRANCH  30  31
ENDBRANCH  26  30
ENDBRANCH  14  25
BRANCH   1  81
ATOM     80  C   UNK A   3      19.518  29.258  19.268  0.00  0.00    +0.000 C 
ATOM     81  N   UNK A   4      20.053  30.334  19.842  0.00  0.00    +0.000 N 
ATOM     82  H   UNK A   4      19.754  30.600  20.802  0.00  0.00    +0.000 HD
ATOM     83  O   UNK A   3      19.779  28.941  18.097  0.00  0.00    +0.000 OA
BRANCH  80  84
ATOM     84  C   UNK A   3      18.551  28.428  20.092  0.00  0.00    +0.000 C 
BRANCH  84  87
ATOM     85  C   LEU A   2      16.351  27.698  19.449  0.00  0.00    +0.000 C 
ATOM     86  O   LEU A   2      15.810  28.051  20.520  0.00  0.00    +0.000 OA
ATOM     87  N   UNK A   3      17.690  27.615  19.287  0.00  0.00    +0.000 N 
ATOM     88  H   UNK A   3      18.093  26.965  18.582  0.00  0.00    +0.000 HD
BRANCH  85  89
ATOM     89  CA  LEU A   2      15.451  27.260  18.257  0.00  0.00    +0.000 C 
BRANCH  89  91
ATOM     90  C   GLU A   1      13.388  26.044  17.990  0.00  0.00    +0.000 C 
ATOM     91  N   LEU A   2      14.188  26.769  18.781  0.00  0.00    +0.000 N 
ATOM     92  H   LEU A   2      13.908  26.979  19.761  0.00  0.00    +0.000 HD
ATOM     93  O   GLU A   1      13.743  25.721  16.883  0.00  0.00    +0.000 OA
BRANCH  90  94
ATOM     94  CA  GLU A   1      12.014  25.651  18.493  0.00  0.00    +0.000 C 
BRANCH  94  95
ATOM     95  N   GLU A   1      11.824  25.538  19.960  0.00  0.00    +0.000 NA
ATOM     96  H   GLU A   1      12.010  26.358  20.572  0.00  0.00    +0.000 HD
ENDBRANCH  94  95
BRANCH  94  97
ATOM     97  CB  GLU A   1      10.880  26.482  17.852  0.00  0.00    +0.000 C 
BRANCH  97  98
ATOM     98  CG  GLU A   1      10.914  27.958  18.120  0.00  0.00    +0.000 A 
ATOM     99  CD2 GLU A   1      10.284  28.492  19.281  0.00  0.00    +0.000 A 
ATOM    100  CE2 GLU A   1      10.284  29.887  19.485  0.00  0.00    +0.000 A 
ATOM    101  CZ  GLU A   1      10.923  30.781  18.572  0.00  0.00    +0.000 A 
ATOM    102  CE1 GLU A   1      11.540  30.278  17.402  0.00  0.00    +0.000 A 
ATOM    103  CD1 GLU A   1      11.546  28.880  17.196  0.00  0.00    +0.000 A 
ENDBRANCH  97  98
ENDBRANCH  94  97
ENDBRANCH  90  94
ENDBRANCH  89  91
BRANCH  89 104
ATOM    104  CB  LEU A   2      15.128  28.483  17.353  0.00  0.00    +0.000 C 
BRANCH 104 105
ATOM    105  CG  LEU A   2      16.256  29.398  17.116  0.00  0.00    +0.000 C 
BRANCH 105 106
ATOM    106  CD  LEU A   2      15.826  30.576  16.320  0.00  0.00    +0.000 C 
ATOM    107  OE1 LEU A   2      15.968  31.712  16.745  0.00  0.00    +0.000 OA
ATOM    108  NE2 LEU A   2      15.262  30.295  15.107  0.00  0.00    +0.000 N 
ATOM    109 HE21 LEU A   2      15.166  29.308  14.794  0.00  0.00    +0.000 HD
ATOM    110 HE22 LEU A   2      14.929  31.068  14.497  0.00  0.00    +0.000 HD
ENDBRANCH 105 106
ENDBRANCH 104 105
ENDBRANCH  89 104
ENDBRANCH  85  89
ENDBRANCH  84  87
BRANCH  84 111
ATOM    111  C   UNK A   3      19.259  27.603  21.189  0.00  0.00    +0.000 C 
BRANCH 111 112
ATOM    112  C   UNK A   3      20.388  26.721  20.743  0.00  0.00    +0.000 A 
ATOM    113  C   UNK A   3      21.697  27.239  20.540  0.00  0.00    +0.000 A 
ATOM    114  C   UNK A   3      22.768  26.404  20.092  0.00  0.00    +0.000 A 
ATOM    115  C   UNK A   3      22.488  25.035  19.894  0.00  0.00    +0.000 A 
ATOM    116  C   UNK A   3      21.186  24.487  20.130  0.00  0.00    +0.000 A 
ATOM    117  C   UNK A   3      20.147  25.336  20.520  0.00  0.00    +0.000 A 
ENDBRANCH 111 112
ENDBRANCH  84 111
ENDBRANCH  80  84
ENDBRANCH   1  81
BRANCH   9 118
ATOM    118  C   UNK A   6      25.527  37.756  21.047  0.00  0.00    +0.000 C 
ATOM    119  O   UNK A   6      25.930  37.164  22.039  0.00  0.00    +0.000 OA
ENDBRANCH   9 118
BRANCH   5 120
ATOM    120  CB  ALA A   5      25.036  33.150  20.541  0.00  0.00    +0.000 C 
BRANCH 120 121
ATOM    121  CG  ALA A   5      25.173  31.770  20.925  0.00  0.00    +0.000 A 
ATOM    122  CD2 ALA A   5      25.435  31.406  22.226  0.00  0.00    +0.000 A 
ATOM    123  CE2 ALA A   5      25.571  30.062  22.570  0.00  0.00    +0.000 A 
ATOM    124  CZ  ALA A   5      25.453  29.025  21.623  0.00  0.00    +0.000 A 
ATOM    125  CE1 ALA A   5      25.165  29.410  20.303  0.00  0.00    +0.000 A 
ATOM    126  CD1 ALA A   5      25.067  30.749  19.980  0.00  0.00    +0.000 A 
ENDBRANCH 120 121
ENDBRANCH   5 120
TORSDOF 40
REMARK  Name = ../refined-set-2016/4wup/4wup_pocket.pdb
REMARK  156 active torsions:
REMARK  status: ('A' for Active; 'I' for Inactive)
REMARK    1  A    between atoms: _1  and  _5
REMARK    2  A    between atoms: _5  and  _6
REMARK    3  A    between atoms: _5  and  _8
REMARK    4  A    between atoms: _8  and  _9
REMARK    5  A    between atoms: _19  and  _21
REMARK    6  A    between atoms: _21  and  _22
REMARK    7  A    between atoms: _21  and  _24
REMARK    8  A    between atoms: _24  and  _25
REMARK    9  A    between atoms: _30  and  _31
REMARK   10  A    between atoms: _33  and  _35
REMARK   11  A    between atoms: _35  and  _36
REMARK   12  A    between atoms: _35  and  _38
REMARK   13  A    between atoms: _38  and  _39
REMARK   14  A    between atoms: _42  and  _43
REMARK   15  A    between atoms: _48  and  _50
REMARK   16  A    between atoms: _50  and  _51
REMARK   17  A    between atoms: _50  and  _53
REMARK   18  A    between atoms: _53  and  _54
REMARK   19  A    between atoms: _59  and  _61
REMARK   20  A    between atoms: _61  and  _62
REMARK   21  A    between atoms: _61  and  _64
REMARK   22  A    between atoms: _64  and  _65
REMARK   23  A    between atoms: _67  and  _69
REMARK   24  A    between atoms: _69  and  _70
REMARK   25  A    between atoms: _69  and  _72
REMARK   26  A    between atoms: _72  and  _73
REMARK   27  A    between atoms: _78  and  _80
REMARK   28  A    between atoms: _80  and  _81
REMARK   29  A    between atoms: _80  and  _83
REMARK   30  A    between atoms: _83  and  _84
REMARK   31  A    between atoms: _89  and  _91
REMARK   32  A    between atoms: _91  and  _92
REMARK   33  A    between atoms: _91  and  _94
REMARK   34  A    between atoms: _94  and  _95
REMARK   35  A    between atoms: _101  and  _103
REMARK   36  A    between atoms: _103  and  _104
REMARK   37  A    between atoms: _103  and  _106
REMARK   38  A    between atoms: _106  and  _107
REMARK   39  A    between atoms: _107  and  _108
REMARK   40  A    between atoms: _113  and  _115
REMARK   41  A    between atoms: _115  and  _116
REMARK   42  A    between atoms: _115  and  _118
REMARK   43  A    between atoms: _118  and  _119
REMARK   44  A    between atoms: _125  and  _127
REMARK   45  A    between atoms: _138  and  _141
REMARK   46  A    between atoms: _141  and  _142
REMARK   47  A    between atoms: _150  and  _151
REMARK   48  A    between atoms: _159  and  _161
REMARK   49  A    between atoms: _161  and  _162
REMARK   50  A    between atoms: _161  and  _164
REMARK   51  A    between atoms: _164  and  _165
REMARK   52  A    between atoms: _165  and  _166
REMARK   53  A    between atoms: _169  and  _171
REMARK   54  A    between atoms: _171  and  _172
REMARK   55  A    between atoms: _171  and  _174
REMARK   56  A    between atoms: _174  and  _175
REMARK   57  A    between atoms: _180  and  _182
REMARK   58  A    between atoms: _182  and  _183
REMARK   59  A    between atoms: _182  and  _185
REMARK   60  A    between atoms: _185  and  _186
REMARK   61  A    between atoms: _186  and  _187
REMARK   62  A    between atoms: _190  and  _192
REMARK   63  A    between atoms: _192  and  _193
REMARK   64  A    between atoms: _192  and  _195
REMARK   65  A    between atoms: _195  and  _196
REMARK   66  A    between atoms: _199  and  _201
REMARK   67  A    between atoms: _201  and  _202
REMARK   68  A    between atoms: _201  and  _204
REMARK   69  A    between atoms: _204  and  _205
REMARK   70  A    between atoms: _206  and  ZN_440
REMARK   71  A    between atoms: _210  and  _212
REMARK   72  A    between atoms: _212  and  _213
REMARK   73  A    between atoms: _212  and  _215
REMARK   74  A    between atoms: _218  and  _220
REMARK   75  A    between atoms: _220  and  _221
REMARK   76  A    between atoms: _224  and  _226
REMARK   77  A    between atoms: _226  and  _227
REMARK   78  A    between atoms: _226  and  _229
REMARK   79  A    between atoms: _229  and  _230
REMARK   80  A    between atoms: _235  and  _237
REMARK   81  A    between atoms: _237  and  _238
REMARK   82  A    between atoms: _237  and  _240
REMARK   83  A    between atoms: _240  and  _241
REMARK   84  A    between atoms: _244  and  _246
REMARK   85  A    between atoms: _246  and  _247
REMARK   86  A    between atoms: _250  and  _252
REMARK   87  A    between atoms: _252  and  _253
REMARK   88  A    between atoms: _256  and  _258
REMARK   89  A    between atoms: _258  and  _259
REMARK   90  A    between atoms: _258  and  _261
REMARK   91  A    between atoms: _261  and  _262
REMARK   92  A    between atoms: _264  and  _266
REMARK   93  A    between atoms: _266  and  _267
REMARK   94  A    between atoms: _266  and  _269
REMARK   95  A    between atoms: _269  and  _270
REMARK   96  A    between atoms: _273  and  _275
REMARK   97  A    between atoms: _275  and  _276
REMARK   98  A    between atoms: _279  and  _281
REMARK   99  A    between atoms: _281  and  _282
REMARK  100  A    between atoms: _281  and  _284
REMARK  101  A    between atoms: _287  and  _289
REMARK  102  A    between atoms: _289  and  _290
REMARK  103  A    between atoms: _289  and  _292
REMARK  104  A    between atoms: _292  and  _293
REMARK  105  A    between atoms: _296  and  _298
REMARK  106  A    between atoms: _298  and  _299
REMARK  107  A    between atoms: _301  and  _303
REMARK  108  A    between atoms: _303  and  _304
REMARK  109  A    between atoms: _306  and  _308
REMARK  110  A    between atoms: _308  and  _309
REMARK  111  A    between atoms: _308  and  _311
REMARK  112  A    between atoms: _311  and  _312
REMARK  113  A    between atoms: _314  and  _316
REMARK  114  A    between atoms: _316  and  _317
REMARK  115  A    between atoms: _316  and  _319
REMARK  116  A    between atoms: _319  and  _320
REMARK  117  A    between atoms: _323  and  _325
REMARK  118  A    between atoms: _325  and  _326
REMARK  119  A    between atoms: _325  and  _328
REMARK  120  A    between atoms: _328  and  _329
REMARK  121  A    between atoms: _332  and  _334
REMARK  122  A    between atoms: _334  and  _335
REMARK  123  A    between atoms: _334  and  _337
REMARK  124  A    between atoms: _337  and  _338
REMARK  125  A    between atoms: _344  and  _345
REMARK  126  A    between atoms: _351  and  _352
REMARK  127  A    between atoms: _357  and  _359
REMARK  128  A    between atoms: _359  and  _360
REMARK  129  A    between atoms: _359  and  _362
REMARK  130  A    between atoms: _362  and  _363
REMARK  131  A    between atoms: _366  and  _368
REMARK  132  A    between atoms: _368  and  _369
REMARK  133  A    between atoms: _368  and  _371
REMARK  134  A    between atoms: _371  and  _372
REMARK  135  A    between atoms: _377  and  _378
REMARK  136  A    between atoms: _380  and  _382
REMARK  137  A    between atoms: _382  and  _383
REMARK  138  A    between atoms: _382  and  _385
REMARK  139  A    between atoms: _385  and  _386
REMARK  140  A    between atoms: _388  and  _390
REMARK  141  A    between atoms: _390  and  _391
REMARK  142  A    between atoms: _390  and  _393
REMARK  143  A    between atoms: _396  and  _398
REMARK  144  A    between atoms: _398  and  _399
REMARK  145  A    between atoms: _398  and  _401
REMARK  146  A    between atoms: _401  and  _402
REMARK  147  A    between atoms: _412  and  _414
REMARK  148  A    between atoms: _414  and  _415
REMARK  149  A    between atoms: _414  and  _417
REMARK  150  A    between atoms: _417  and  _418
REMARK  151  A    between atoms: _423  and  _425
REMARK  152  A    between atoms: _425  and  _426
REMARK  153  A    between atoms: _425  and  _428
REMARK  154  A    between atoms: _428  and  _429
REMARK  155  A    between atoms: _429  and  _430
REMARK  156  A    between atoms: _430  and  _431
REMARK                            x       y       z     vdW  Elec       q    Type
REMARK                         _______ _______ _______ _____ _____    ______ ____
ROOT
ATOM      1  C   GLU A   1      21.070  42.329  26.700  0.00  0.00    +0.238 C 
ATOM      2  N   HIS A   2      20.706  41.404  27.559  0.00  0.00    -0.298 N 
ATOM      3  H   HIS A   2      20.655  40.406  27.271  0.00  0.00    +0.150 HD
ATOM      4  O   GLU A   1      21.006  43.544  26.938  0.00  0.00    -0.274 OA
ENDROOT
BRANCH   1   5
ATOM      5  CA  GLU A   1      21.569  41.852  25.362  0.00  0.00    +0.145 C 
BRANCH   5   6
ATOM      6  N   GLU A   1      22.734  40.971  25.578  0.00  0.00    -0.238 NA
ATOM      7  H   GLU A   1      22.571  39.965  25.788  0.00  0.00    +0.142 HD
ENDBRANCH   5   6
BRANCH   5   8
ATOM      8  CB  GLU A   1      20.453  41.089  24.648  0.00  0.00    +0.038 C 
BRANCH   8   9
ATOM      9  CG  GLU A   1      20.963  40.651  23.240  0.00  0.00    +0.116 C 
BRANCH   9  10
ATOM     10  CD  GLU A   1      19.861  40.706  22.167  0.00  0.00    +0.365 C 
ATOM     11  OE2 GLU A   1      18.923  39.877  22.288  0.00  0.00    -0.246 OA
ATOM     12  OE1 GLU A   1      19.938  41.575  21.284  0.00  0.00    -0.246 OA
ENDBRANCH   9  10
ENDBRANCH   8   9
ENDBRANCH   5   8
ENDBRANCH   1   5
BRANCH   2  13
ATOM     13  CA  HIS A   2      20.371  41.804  28.935  0.00  0.00    +0.143 C 
BRANCH  13  14
ATOM     14  C   HIS A   2      21.665  42.231  29.663  0.00  0.00    +0.227 C 
ATOM     15  O   HIS A   2      22.791  41.808  29.349  0.00  0.00    -0.286 OA
ENDBRANCH  13  14
BRANCH  13  16
ATOM     16  CB  HIS A   2      19.649  40.669  29.656  0.00  0.00    +0.075 C 
BRANCH  16  17
ATOM     17  CG  HIS A   2      18.271  40.412  29.094  0.00  0.00    +0.082 A 
ATOM     18  CD2 HIS A   2      17.043  40.912  29.471  0.00  0.00    +0.115 A 
ATOM     19  NE2 HIS A   2      16.108  40.447  28.565  0.00  0.00    -0.221 NA
ATOM     20  CE1 HIS A   2      16.739  39.561  27.725  0.00  0.00    +0.199 A 
ATOM     21  ND1 HIS A   2      18.053  39.577  28.029  0.00  0.00    -0.227 NA
ENDBRANCH  16  17
ENDBRANCH  13  16
ENDBRANCH   2  13
TORSDOF 9
REMARK  Name = ../refined-set-2016/4wup/4wup_pocket.pdb
REMARK  156 active torsions:
REMARK  status: ('A' for Active; 'I' for Inactive)
REMARK    1  A    between atoms: _1  and  _5
REMARK    2  A    between atoms: _5  and  _6
REMARK    3  A    between atoms: _5  and  _8
REMARK    4  A    between atoms: _8  and  _9
REMARK    5  A    between atoms: _19  and  _21
REMARK    6  A    between atoms: _21  and  _22
REMARK    7  A    between atoms: _21  and  _24
REMARK    8  A    between atoms: _24  and  _25
REMARK    9  A    between atoms: _30  and  _31
REMARK   10  A    between atoms: _33  and  _35
REMARK   11  A    between atoms: _35  and  _36
REMARK   12  A    between atoms: _35  and  _38
REMARK   13  A    between atoms: _38  and  _39
REMARK   14  A    between atoms: _42  and  _43
REMARK   15  A    between atoms: _48  and  _50
REMARK   16  A    between atoms: _50  and  _51
REMARK   17  A    between atoms: _50  and  _53
REMARK   18  A    between atoms: _53  and  _54
REMARK   19  A    between atoms: _59  and  _61
REMARK   20  A    between atoms: _61  and  _62
REMARK   21  A    between atoms: _61  and  _64
REMARK   22  A    between atoms: _64  and  _65
REMARK   23  A    between atoms: _67  and  _69
REMARK   24  A    between atoms: _69  and  _70
REMARK   25  A    between atoms: _69  and  _72
REMARK   26  A    between atoms: _72  and  _73
REMARK   27  A    between atoms: _78  and  _80
REMARK   28  A    between atoms: _80  and  _81
REMARK   29  A    between atoms: _80  and  _83
REMARK   30  A    between atoms: _83  and  _84
REMARK   31  A    between atoms: _89  and  _91
REMARK   32  A    between atoms: _91  and  _92
REMARK   33  A    between atoms: _91  and  _94
REMARK   34  A    between atoms: _94  and  _95
REMARK   35  A    between atoms: _101  and  _103
REMARK   36  A    between atoms: _103  and  _104
REMARK   37  A    between atoms: _103  and  _106
REMARK   38  A    between atoms: _106  and  _107
REMARK   39  A    between atoms: _107  and  _108
REMARK   40  A    between atoms: _113  and  _115
REMARK   41  A    between atoms: _115  and  _116
REMARK   42  A    between atoms: _115  and  _118
REMARK   43  A    between atoms: _118  and  _119
REMARK   44  A    between atoms: _125  and  _127
REMARK   45  A    between atoms: _138  and  _141
REMARK   46  A    between atoms: _141  and  _142
REMARK   47  A    between atoms: _150  and  _151
REMARK   48  A    between atoms: _159  and  _161
REMARK   49  A    between atoms: _161  and  _162
REMARK   50  A    between atoms: _161  and  _164
REMARK   51  A    between atoms: _164  and  _165
REMARK   52  A    between atoms: _165  and  _166
REMARK   53  A    between atoms: _169  and  _171
REMARK   54  A    between atoms: _171  and  _172
REMARK   55  A    between atoms: _171  and  _174
REMARK   56  A    between atoms: _174  and  _175
REMARK   57  A    between atoms: _180  and  _182
REMARK   58  A    between atoms: _182  and  _183
REMARK   59  A    between atoms: _182  and  _185
REMARK   60  A    between atoms: _185  and  _186
REMARK   61  A    between atoms: _186  and  _187
REMARK   62  A    between atoms: _190  and  _192
REMARK   63  A    between atoms: _192  and  _193
REMARK   64  A    between atoms: _192  and  _195
REMARK   65  A    between atoms: _195  and  _196
REMARK   66  A    between atoms: _199  and  _201
REMARK   67  A    between atoms: _201  and  _202
REMARK   68  A    between atoms: _201  and  _204
REMARK   69  A    between atoms: _204  and  _205
REMARK   70  A    between atoms: _206  and  ZN_440
REMARK   71  A    between atoms: _210  and  _212
REMARK   72  A    between atoms: _212  and  _213
REMARK   73  A    between atoms: _212  and  _215
REMARK   74  A    between atoms: _218  and  _220
REMARK   75  A    between atoms: _220  and  _221
REMARK   76  A    between atoms: _224  and  _226
REMARK   77  A    between atoms: _226  and  _227
REMARK   78  A    between atoms: _226  and  _229
REMARK   79  A    between atoms: _229  and  _230
REMARK   80  A    between atoms: _235  and  _237
REMARK   81  A    between atoms: _237  and  _238
REMARK   82  A    between atoms: _237  and  _240
REMARK   83  A    between atoms: _240  and  _241
REMARK   84  A    between atoms: _244  and  _246
REMARK   85  A    between atoms: _246  and  _247
REMARK   86  A    between atoms: _250  and  _252
REMARK   87  A    between atoms: _252  and  _253
REMARK   88  A    between atoms: _256  and  _258
REMARK   89  A    between atoms: _258  and  _259
REMARK   90  A    between atoms: _258  and  _261
REMARK   91  A    between atoms: _261  and  _262
REMARK   92  A    between atoms: _264  and  _266
REMARK   93  A    between atoms: _266  and  _267
REMARK   94  A    between atoms: _266  and  _269
REMARK   95  A    between atoms: _269  and  _270
REMARK   96  A    between atoms: _273  and  _275
REMARK   97  A    between atoms: _275  and  _276
REMARK   98  A    between atoms: _279  and  _281
REMARK   99  A    between atoms: _281  and  _282
REMARK  100  A    between atoms: _281  and  _284
REMARK  101  A    between atoms: _287  and  _289
REMARK  102  A    between atoms: _289  and  _290
REMARK  103  A    between atoms: _289  and  _292
REMARK  104  A    between atoms: _292  and  _293
REMARK  105  A    between atoms: _296  and  _298
REMARK  106  A    between atoms: _298  and  _299
REMARK  107  A    between atoms: _301  and  _303
REMARK  108  A    between atoms: _303  and  _304
REMARK  109  A    between atoms: _306  and  _308
REMARK  110  A    between atoms: _308  and  _309
REMARK  111  A    between atoms: _308  and  _311
REMARK  112  A    between atoms: _311  and  _312
REMARK  113  A    between atoms: _314  and  _316
REMARK  114  A    between atoms: _316  and  _317
REMARK  115  A    between atoms: _316  and  _319
REMARK  116  A    between atoms: _319  and  _320
REMARK  117  A    between atoms: _323  and  _325
REMARK  118  A    between atoms: _325  and  _326
REMARK  119  A    between atoms: _325  and  _328
REMARK  120  A    between atoms: _328  and  _329
REMARK  121  A    between atoms: _332  and  _334
REMARK  122  A    between atoms: _334  and  _335
REMARK  123  A    between atoms: _334  and  _337
REMARK  124  A    between atoms: _337  and  _338
REMARK  125  A    between atoms: _344  and  _345
REMARK  126  A    between atoms: _351  and  _352
REMARK  127  A    between atoms: _357  and  _359
REMARK  128  A    between atoms: _359  and  _360
REMARK  129  A    between atoms: _359  and  _362
REMARK  130  A    between atoms: _362  and  _363
REMARK  131  A    between atoms: _366  and  _368
REMARK  132  A    between atoms: _368  and  _369
REMARK  133  A    between atoms: _368  and  _371
REMARK  134  A    between atoms: _371  and  _372
REMARK  135  A    between atoms: _377  and  _378
REMARK  136  A    between atoms: _380  and  _382
REMARK  137  A    between atoms: _382  and  _383
REMARK  138  A    between atoms: _382  and  _385
REMARK  139  A    between atoms: _385  and  _386
REMARK  140  A    between atoms: _388  and  _390
REMARK  141  A    between atoms: _390  and  _391
REMARK  142  A    between atoms: _390  and  _393
REMARK  143  A    between atoms: _396  and  _398
REMARK  144  A    between atoms: _398  and  _399
REMARK  145  A    between atoms: _398  and  _401
REMARK  146  A    between atoms: _401  and  _402
REMARK  147  A    between atoms: _412  and  _414
REMARK  148  A    between atoms: _414  and  _415
REMARK  149  A    between atoms: _414  and  _417
REMARK  150  A    between atoms: _417  and  _418
REMARK  151  A    between atoms: _423  and  _425
REMARK  152  A    between atoms: _425  and  _426
REMARK  153  A    between atoms: _425  and  _428
REMARK  154  A    between atoms: _428  and  _429
REMARK  155  A    between atoms: _429  and  _430
REMARK  156  A    between atoms: _430  and  _431
REMARK                            x       y       z     vdW  Elec       q    Type
REMARK                         _______ _______ _______ _____ _____    ______ ____
ROOT
ATOM      1  C   LEU A   1       4.411  30.162  15.319  0.00  0.00    +0.238 C 
ATOM      2  O   LEU A   1       4.403  31.243  15.899  0.00  0.00    -0.274 OA
ATOM      3  N   ALA A   2       3.996  30.036  14.048  0.00  0.00    -0.298 N 
ATOM      4  H   ALA A   2       4.009  29.111  13.572  0.00  0.00    +0.150 HD
ENDROOT
BRANCH   3   5
ATOM      5  CA  ALA A   2       3.525  31.231  13.350  0.00  0.00    +0.137 C 
ATOM      6  CB  ALA A   2       3.195  30.854  11.908  0.00  0.00    +0.030 C 
BRANCH   5   7
ATOM      7  C   ALA A   2       2.290  31.800  14.039  0.00  0.00    +0.227 C 
ATOM      8  O   ALA A   2       2.093  33.024  14.081  0.00  0.00    -0.286 OA
ENDBRANCH   5   7
ENDBRANCH   3   5
BRANCH   1   9
ATOM      9  CA  LEU A   1       5.051  28.946  15.959  0.00  0.00    +0.145 C 
BRANCH   9  10
ATOM     10  N   LEU A   1       4.247  27.708  15.783  0.00  0.00    -0.238 NA
ATOM     11  H   LEU A   1       4.724  26.830  15.495  0.00  0.00    +0.142 HD
ENDBRANCH   9  10
BRANCH   9  12
ATOM     12  CB  LEU A   1       6.507  28.762  15.494  0.00  0.00    +0.026 C 
BRANCH  12  13
ATOM     13  CG  LEU A   1       7.436  29.996  15.488  0.00  0.00    +0.002 C 
ATOM     14  CD2 LEU A   1       7.573  30.495  16.926  0.00  0.00    +0.000 C 
ATOM     15  CD1 LEU A   1       8.843  29.683  14.905  0.00  0.00    +0.000 C 
ENDBRANCH  12  13
ENDBRANCH   9  12
ENDBRANCH   1   9
TORSDOF 6
REMARK  Name = ../refined-set-2016/4wup/4wup_pocket.pdb
REMARK  156 active torsions:
REMARK  status: ('A' for Active; 'I' for Inactive)
REMARK    1  A    between atoms: _1  and  _5
REMARK    2  A    between atoms: _5  and  _6
REMARK    3  A    between atoms: _5  and  _8
REMARK    4  A    between atoms: _8  and  _9
REMARK    5  A    between atoms: _19  and  _21
REMARK    6  A    between atoms: _21  and  _22
REMARK    7  A    between atoms: _21  and  _24
REMARK    8  A    between atoms: _24  and  _25
REMARK    9  A    between atoms: _30  and  _31
REMARK   10  A    between atoms: _33  and  _35
REMARK   11  A    between atoms: _35  and  _36
REMARK   12  A    between atoms: _35  and  _38
REMARK   13  A    between atoms: _38  and  _39
REMARK   14  A    between atoms: _42  and  _43
REMARK   15  A    between atoms: _48  and  _50
REMARK   16  A    between atoms: _50  and  _51
REMARK   17  A    between atoms: _50  and  _53
REMARK   18  A    between atoms: _53  and  _54
REMARK   19  A    between atoms: _59  and  _61
REMARK   20  A    between atoms: _61  and  _62
REMARK   21  A    between atoms: _61  and  _64
REMARK   22  A    between atoms: _64  and  _65
REMARK   23  A    between atoms: _67  and  _69
REMARK   24  A    between atoms: _69  and  _70
REMARK   25  A    between atoms: _69  and  _72
REMARK   26  A    between atoms: _72  and  _73
REMARK   27  A    between atoms: _78  and  _80
REMARK   28  A    between atoms: _80  and  _81
REMARK   29  A    between atoms: _80  and  _83
REMARK   30  A    between atoms: _83  and  _84
REMARK   31  A    between atoms: _89  and  _91
REMARK   32  A    between atoms: _91  and  _92
REMARK   33  A    between atoms: _91  and  _94
REMARK   34  A    between atoms: _94  and  _95
REMARK   35  A    between atoms: _101  and  _103
REMARK   36  A    between atoms: _103  and  _104
REMARK   37  A    between atoms: _103  and  _106
REMARK   38  A    between atoms: _106  and  _107
REMARK   39  A    between atoms: _107  and  _108
REMARK   40  A    between atoms: _113  and  _115
REMARK   41  A    between atoms: _115  and  _116
REMARK   42  A    between atoms: _115  and  _118
REMARK   43  A    between atoms: _118  and  _119
REMARK   44  A    between atoms: _125  and  _127
REMARK   45  A    between atoms: _138  and  _141
REMARK   46  A    between atoms: _141  and  _142
REMARK   47  A    between atoms: _150  and  _151
REMARK   48  A    between atoms: _159  and  _161
REMARK   49  A    between atoms: _161  and  _162
REMARK   50  A    between atoms: _161  and  _164
REMARK   51  A    between atoms: _164  and  _165
REMARK   52  A    between atoms: _165  and  _166
REMARK   53  A    between atoms: _169  and  _171
REMARK   54  A    between atoms: _171  and  _172
REMARK   55  A    between atoms: _171  and  _174
REMARK   56  A    between atoms: _174  and  _175
REMARK   57  A    between atoms: _180  and  _182
REMARK   58  A    between atoms: _182  and  _183
REMARK   59  A    between atoms: _182  and  _185
REMARK   60  A    between atoms: _185  and  _186
REMARK   61  A    between atoms: _186  and  _187
REMARK   62  A    between atoms: _190  and  _192
REMARK   63  A    between atoms: _192  and  _193
REMARK   64  A    between atoms: _192  and  _195
REMARK   65  A    between atoms: _195  and  _196
REMARK   66  A    between atoms: _199  and  _201
REMARK   67  A    between atoms: _201  and  _202
REMARK   68  A    between atoms: _201  and  _204
REMARK   69  A    between atoms: _204  and  _205
REMARK   70  A    between atoms: _206  and  ZN_440
REMARK   71  A    between atoms: _210  and  _212
REMARK   72  A    between atoms: _212  and  _213
REMARK   73  A    between atoms: _212  and  _215
REMARK   74  A    between atoms: _218  and  _220
REMARK   75  A    between atoms: _220  and  _221
REMARK   76  A    between atoms: _224  and  _226
REMARK   77  A    between atoms: _226  and  _227
REMARK   78  A    between atoms: _226  and  _229
REMARK   79  A    between atoms: _229  and  _230
REMARK   80  A    between atoms: _235  and  _237
REMARK   81  A    between atoms: _237  and  _238
REMARK   82  A    between atoms: _237  and  _240
REMARK   83  A    between atoms: _240  and  _241
REMARK   84  A    between atoms: _244  and  _246
REMARK   85  A    between atoms: _246  and  _247
REMARK   86  A    between atoms: _250  and  _252
REMARK   87  A    between atoms: _252  and  _253
REMARK   88  A    between atoms: _256  and  _258
REMARK   89  A    between atoms: _258  and  _259
REMARK   90  A    between atoms: _258  and  _261
REMARK   91  A    between atoms: _261  and  _262
REMARK   92  A    between atoms: _264  and  _266
REMARK   93  A    between atoms: _266  and  _267
REMARK   94  A    between atoms: _266  and  _269
REMARK   95  A    between atoms: _269  and  _270
REMARK   96  A    between atoms: _273  and  _275
REMARK   97  A    between atoms: _275  and  _276
REMARK   98  A    between atoms: _279  and  _281
REMARK   99  A    between atoms: _281  and  _282
REMARK  100  A    between atoms: _281  and  _284
REMARK  101  A    between atoms: _287  and  _289
REMARK  102  A    between atoms: _289  and  _290
REMARK  103  A    between atoms: _289  and  _292
REMARK  104  A    between atoms: _292  and  _293
REMARK  105  A    between atoms: _296  and  _298
REMARK  106  A    between atoms: _298  and  _299
REMARK  107  A    between atoms: _301  and  _303
REMARK  108  A    between atoms: _303  and  _304
REMARK  109  A    between atoms: _306  and  _308
REMARK  110  A    between atoms: _308  and  _309
REMARK  111  A    between atoms: _308  and  _311
REMARK  112  A    between atoms: _311  and  _312
REMARK  113  A    between atoms: _314  and  _316
REMARK  114  A    between atoms: _316  and  _317
REMARK  115  A    between atoms: _316  and  _319
REMARK  116  A    between atoms: _319  and  _320
REMARK  117  A    between atoms: _323  and  _325
REMARK  118  A    between atoms: _325  and  _326
REMARK  119  A    between atoms: _325  and  _328
REMARK  120  A    between atoms: _328  and  _329
REMARK  121  A    between atoms: _332  and  _334
REMARK  122  A    between atoms: _334  and  _335
REMARK  123  A    between atoms: _334  and  _337
REMARK  124  A    between atoms: _337  and  _338
REMARK  125  A    between atoms: _344  and  _345
REMARK  126  A    between atoms: _351  and  _352
REMARK  127  A    between atoms: _357  and  _359
REMARK  128  A    between atoms: _359  and  _360
REMARK  129  A    between atoms: _359  and  _362
REMARK  130  A    between atoms: _362  and  _363
REMARK  131  A    between atoms: _366  and  _368
REMARK  132  A    between atoms: _368  and  _369
REMARK  133  A    between atoms: _368  and  _371
REMARK  134  A    between atoms: _371  and  _372
REMARK  135  A    between atoms: _377  and  _378
REMARK  136  A    between atoms: _380  and  _382
REMARK  137  A    between atoms: _382  and  _383
REMARK  138  A    between atoms: _382  and  _385
REMARK  139  A    between atoms: _385  and  _386
REMARK  140  A    between atoms: _388  and  _390
REMARK  141  A    between atoms: _390  and  _391
REMARK  142  A    between atoms: _390  and  _393
REMARK  143  A    between atoms: _396  and  _398
REMARK  144  A    between atoms: _398  and  _399
REMARK  145  A    between atoms: _398  and  _401
REMARK  146  A    between atoms: _401  and  _402
REMARK  147  A    between atoms: _412  and  _414
REMARK  148  A    between atoms: _414  and  _415
REMARK  149  A    between atoms: _414  and  _417
REMARK  150  A    between atoms: _417  and  _418
REMARK  151  A    between atoms: _423  and  _425
REMARK  152  A    between atoms: _425  and  _426
REMARK  153  A    between atoms: _425  and  _428
REMARK  154  A    between atoms: _428  and  _429
REMARK  155  A    between atoms: _429  and  _430
REMARK  156  A    between atoms: _430  and  _431
REMARK                            x       y       z     vdW  Elec       q    Type
REMARK                         _______ _______ _______ _____ _____    ______ ____
ROOT
ATOM      1  C   ALA A   1       4.199  35.772  18.101  0.00  0.00    +0.238 C 
ATOM      2  O   ALA A   1       4.977  36.496  18.706  0.00  0.00    -0.274 OA
ATOM      3  N   SER A   2       2.993  36.165  17.693  0.00  0.00    -0.296 N 
ATOM      4  H   SER A   2       2.356  35.491  17.223  0.00  0.00    +0.150 HD
ENDROOT
BRANCH   1   5
ATOM      5  CA  ALA A   1       4.629  34.368  17.748  0.00  0.00    +0.145 C 
ATOM      6  CB  ALA A   1       5.515  34.365  16.510  0.00  0.00    +0.028 C 
BRANCH   5   7
ATOM      7  N   ALA A   1       3.510  33.434  17.625  0.00  0.00    -0.238 NA
ATOM      8  H   ALA A   1       3.281  33.005  16.706  0.00  0.00    +0.142 HD
ENDBRANCH   5   7
ENDBRANCH   1   5
BRANCH   3   9
ATOM      9  CA  SER A   2       2.562  37.572  17.913  0.00  0.00    +0.166 C 
BRANCH   9  10
ATOM     10  CB  SER A   2       1.618  37.709  19.143  0.00  0.00    +0.229 C 
ATOM     11  OG  SER A   2       1.065  38.801  19.380  0.00  0.00    -0.286 OA
ENDBRANCH   9  10
BRANCH   9  12
ATOM     12  C   SER A   2       1.897  38.059  16.628  0.00  0.00    +0.165 C 
BRANCH  12  13
ATOM     13  O   SER A   2       0.644  37.440  16.513  0.00  0.00    -0.380 OA
ATOM     14  H   SER A   2       0.086  37.680  17.295  0.00  0.00    +0.211 HD
ENDBRANCH  12  13
ENDBRANCH   9  12
ENDBRANCH   3   9
TORSDOF 6
REMARK  Name = ../refined-set-2016/4wup/4wup_pocket.pdb
REMARK  156 active torsions:
REMARK  status: ('A' for Active; 'I' for Inactive)
REMARK    1  A    between atoms: _1  and  _5
REMARK    2  A    between atoms: _5  and  _6
REMARK    3  A    between atoms: _5  and  _8
REMARK    4  A    between atoms: _8  and  _9
REMARK    5  A    between atoms: _19  and  _21
REMARK    6  A    between atoms: _21  and  _22
REMARK    7  A    between atoms: _21  and  _24
REMARK    8  A    between atoms: _24  and  _25
REMARK    9  A    between atoms: _30  and  _31
REMARK   10  A    between atoms: _33  and  _35
REMARK   11  A    between atoms: _35  and  _36
REMARK   12  A    between atoms: _35  and  _38
REMARK   13  A    between atoms: _38  and  _39
REMARK   14  A    between atoms: _42  and  _43
REMARK   15  A    between atoms: _48  and  _50
REMARK   16  A    between atoms: _50  and  _51
REMARK   17  A    between atoms: _50  and  _53
REMARK   18  A    between atoms: _53  and  _54
REMARK   19  A    between atoms: _59  and  _61
REMARK   20  A    between atoms: _61  and  _62
REMARK   21  A    between atoms: _61  and  _64
REMARK   22  A    between atoms: _64  and  _65
REMARK   23  A    between atoms: _67  and  _69
REMARK   24  A    between atoms: _69  and  _70
REMARK   25  A    between atoms: _69  and  _72
REMARK   26  A    between atoms: _72  and  _73
REMARK   27  A    between atoms: _78  and  _80
REMARK   28  A    between atoms: _80  and  _81
REMARK   29  A    between atoms: _80  and  _83
REMARK   30  A    between atoms: _83  and  _84
REMARK   31  A    between atoms: _89  and  _91
REMARK   32  A    between atoms: _91  and  _92
REMARK   33  A    between atoms: _91  and  _94
REMARK   34  A    between atoms: _94  and  _95
REMARK   35  A    between atoms: _101  and  _103
REMARK   36  A    between atoms: _103  and  _104
REMARK   37  A    between atoms: _103  and  _106
REMARK   38  A    between atoms: _106  and  _107
REMARK   39  A    between atoms: _107  and  _108
REMARK   40  A    between atoms: _113  and  _115
REMARK   41  A    between atoms: _115  and  _116
REMARK   42  A    between atoms: _115  and  _118
REMARK   43  A    between atoms: _118  and  _119
REMARK   44  A    between atoms: _125  and  _127
REMARK   45  A    between atoms: _138  and  _141
REMARK   46  A    between atoms: _141  and  _142
REMARK   47  A    between atoms: _150  and  _151
REMARK   48  A    between atoms: _159  and  _161
REMARK   49  A    between atoms: _161  and  _162
REMARK   50  A    between atoms: _161  and  _164
REMARK   51  A    between atoms: _164  and  _165
REMARK   52  A    between atoms: _165  and  _166
REMARK   53  A    between atoms: _169  and  _171
REMARK   54  A    between atoms: _171  and  _172
REMARK   55  A    between atoms: _171  and  _174
REMARK   56  A    between atoms: _174  and  _175
REMARK   57  A    between atoms: _180  and  _182
REMARK   58  A    between atoms: _182  and  _183
REMARK   59  A    between atoms: _182  and  _185
REMARK   60  A    between atoms: _185  and  _186
REMARK   61  A    between atoms: _186  and  _187
REMARK   62  A    between atoms: _190  and  _192
REMARK   63  A    between atoms: _192  and  _193
REMARK   64  A    between atoms: _192  and  _195
REMARK   65  A    between atoms: _195  and  _196
REMARK   66  A    between atoms: _199  and  _201
REMARK   67  A    between atoms: _201  and  _202
REMARK   68  A    between atoms: _201  and  _204
REMARK   69  A    between atoms: _204  and  _205
REMARK   70  A    between atoms: _206  and  ZN_440
REMARK   71  A    between atoms: _210  and  _212
REMARK   72  A    between atoms: _212  and  _213
REMARK   73  A    between atoms: _212  and  _215
REMARK   74  A    between atoms: _218  and  _220
REMARK   75  A    between atoms: _220  and  _221
REMARK   76  A    between atoms: _224  and  _226
REMARK   77  A    between atoms: _226  and  _227
REMARK   78  A    between atoms: _226  and  _229
REMARK   79  A    between atoms: _229  and  _230
REMARK   80  A    between atoms: _235  and  _237
REMARK   81  A    between atoms: _237  and  _238
REMARK   82  A    between atoms: _237  and  _240
REMARK   83  A    between atoms: _240  and  _241
REMARK   84  A    between atoms: _244  and  _246
REMARK   85  A    between atoms: _246  and  _247
REMARK   86  A    between atoms: _250  and  _252
REMARK   87  A    between atoms: _252  and  _253
REMARK   88  A    between atoms: _256  and  _258
REMARK   89  A    between atoms: _258  and  _259
REMARK   90  A    between atoms: _258  and  _261
REMARK   91  A    between atoms: _261  and  _262
REMARK   92  A    between atoms: _264  and  _266
REMARK   93  A    between atoms: _266  and  _267
REMARK   94  A    between atoms: _266  and  _269
REMARK   95  A    between atoms: _269  and  _270
REMARK   96  A    between atoms: _273  and  _275
REMARK   97  A    between atoms: _275  and  _276
REMARK   98  A    between atoms: _279  and  _281
REMARK   99  A    between atoms: _281  and  _282
REMARK  100  A    between atoms: _281  and  _284
REMARK  101  A    between atoms: _287  and  _289
REMARK  102  A    between atoms: _289  and  _290
REMARK  103  A    between atoms: _289  and  _292
REMARK  104  A    between atoms: _292  and  _293
REMARK  105  A    between atoms: _296  and  _298
REMARK  106  A    between atoms: _298  and  _299
REMARK  107  A    between atoms: _301  and  _303
REMARK  108  A    between atoms: _303  and  _304
REMARK  109  A    between atoms: _306  and  _308
REMARK  110  A    between atoms: _308  and  _309
REMARK  111  A    between atoms: _308  and  _311
REMARK  112  A    between atoms: _311  and  _312
REMARK  113  A    between atoms: _314  and  _316
REMARK  114  A    between atoms: _316  and  _317
REMARK  115  A    between atoms: _316  and  _319
REMARK  116  A    between atoms: _319  and  _320
REMARK  117  A    between atoms: _323  and  _325
REMARK  118  A    between atoms: _325  and  _326
REMARK  119  A    between atoms: _325  and  _328
REMARK  120  A    between atoms: _328  and  _329
REMARK  121  A    between atoms: _332  and  _334
REMARK  122  A    between atoms: _334  and  _335
REMARK  123  A    between atoms: _334  and  _337
REMARK  124  A    between atoms: _337  and  _338
REMARK  125  A    between atoms: _344  and  _345
REMARK  126  A    between atoms: _351  and  _352
REMARK  127  A    between atoms: _357  and  _359
REMARK  128  A    between atoms: _359  and  _360
REMARK  129  A    between atoms: _359  and  _362
REMARK  130  A    between atoms: _362  and  _363
REMARK  131  A    between atoms: _366  and  _368
REMARK  132  A    between atoms: _368  and  _369
REMARK  133  A    between atoms: _368  and  _371
REMARK  134  A    between atoms: _371  and  _372
REMARK  135  A    between atoms: _377  and  _378
REMARK  136  A    between atoms: _380  and  _382
REMARK  137  A    between atoms: _382  and  _383
REMARK  138  A    between atoms: _382  and  _385
REMARK  139  A    between atoms: _385  and  _386
REMARK  140  A    between atoms: _388  and  _390
REMARK  141  A    between atoms: _390  and  _391
REMARK  142  A    between atoms: _390  and  _393
REMARK  143  A    between atoms: _396  and  _398
REMARK  144  A    between atoms: _398  and  _399
REMARK  145  A    between atoms: _398  and  _401
REMARK  146  A    between atoms: _401  and  _402
REMARK  147  A    between atoms: _412  and  _414
REMARK  148  A    between atoms: _414  and  _415
REMARK  149  A    between atoms: _414  and  _417
REMARK  150  A    between atoms: _417  and  _418
REMARK  151  A    between atoms: _423  and  _425
REMARK  152  A    between atoms: _425  and  _426
REMARK  153  A    between atoms: _425  and  _428
REMARK  154  A    between atoms: _428  and  _429
REMARK  155  A    between atoms: _429  and  _430
REMARK  156  A    between atoms: _430  and  _431
REMARK                            x       y       z     vdW  Elec       q    Type
REMARK                         _______ _______ _______ _____ _____    ______ ____
ROOT
ATOM      1  CA  VAL A   3      12.862  32.531  25.912  0.00  0.00    +0.149 C 
ENDROOT
BRANCH   1   3
ATOM      2  C   ALA A   2      10.547  31.708  25.861  0.00  0.00    +0.241 C 
ATOM      3  N   VAL A   3      11.384  32.628  26.302  0.00  0.00    -0.297 N 
ATOM      4  H   VAL A   3      11.046  33.406  26.904  0.00  0.00    +0.150 HD
ATOM      5  O   ALA A   2      10.884  30.795  25.057  0.00  0.00    -0.273 OA
BRANCH   2   6
ATOM      6  CA  ALA A   2       9.093  31.838  26.313  0.00  0.00    +0.149 C 
ATOM      7  CB  ALA A   2       8.704  30.690  27.206  0.00  0.00    +0.031 C 
BRANCH   6  10
ATOM      8  C   LEU A   1       7.363  32.755  24.813  0.00  0.00    +0.238 C 
ATOM      9  O   LEU A   1       6.933  33.609  25.665  0.00  0.00    -0.274 OA
ATOM     10  N   ALA A   2       8.323  31.845  25.043  0.00  0.00    -0.297 N 
ATOM     11  H   ALA A   2       8.532  31.130  24.317  0.00  0.00    +0.150 HD
BRANCH   8  12
ATOM     12  CA  LEU A   1       6.718  32.677  23.431  0.00  0.00    +0.145 C 
BRANCH  12  13
ATOM     13  N   LEU A   1       5.317  33.101  23.444  0.00  0.00    -0.238 NA
ATOM     14  H   LEU A   1       5.075  34.025  23.856  0.00  0.00    +0.142 HD
ENDBRANCH  12  13
BRANCH  12  15
ATOM     15  CB  LEU A   1       7.553  33.565  22.480  0.00  0.00    +0.026 C 
BRANCH  15  16
ATOM     16  CG  LEU A   1       7.033  33.726  21.033  0.00  0.00    +0.002 C 
ATOM     17  CD2 LEU A   1       6.912  32.350  20.350  0.00  0.00    +0.000 C 
ATOM     18  CD1 LEU A   1       7.976  34.664  20.233  0.00  0.00    +0.000 C 
ENDBRANCH  15  16
ENDBRANCH  12  15
ENDBRANCH   8  12
ENDBRANCH   6  10
ENDBRANCH   2   6
ENDBRANCH   1   3
BRANCH   1  19
ATOM     19  C   VAL A   3      13.709  32.532  27.191  0.00  0.00    +0.241 C 
ATOM     20  O   VAL A   3      13.541  33.426  28.008  0.00  0.00    -0.273 OA
ATOM     21  N   ILE A   4      14.590  31.546  27.325  0.00  0.00    -0.297 N 
ATOM     22  H   ILE A   4      14.579  30.771  26.631  0.00  0.00    +0.150 HD
BRANCH  21  23
ATOM     23  CA  ILE A   4      15.592  31.503  28.426  0.00  0.00    +0.149 C 
BRANCH  23  24
ATOM     24  C   ILE A   4      16.754  32.263  27.937  0.00  0.00    +0.241 C 
ATOM     25  N   GLY A   5      17.276  33.217  28.757  0.00  0.00    -0.296 N 
ATOM     26  H   GLY A   5      16.805  33.438  29.657  0.00  0.00    +0.150 HD
ATOM     27  O   ILE A   4      17.267  31.959  26.835  0.00  0.00    -0.273 OA
BRANCH  25  28
ATOM     28  CA  GLY A   5      18.505  33.938  28.377  0.00  0.00    +0.163 C 
BRANCH  28  29
ATOM     29  C   GLY A   5      19.566  33.538  29.406  0.00  0.00    +0.229 C 
ATOM     30  O   GLY A   5      19.286  33.417  30.634  0.00  0.00    -0.286 OA
ENDBRANCH  28  29
ENDBRANCH  25  28
ENDBRANCH  23  24
BRANCH  23  31
ATOM     31  CB  ILE A   4      15.999  30.072  28.712  0.00  0.00    +0.027 C 
ATOM     32  CG2 ILE A   4      17.071  30.122  29.834  0.00  0.00    +0.002 C 
BRANCH  31  33
ATOM     33  CG1 ILE A   4      14.746  29.222  29.198  0.00  0.00    +0.002 C 
ATOM     34  CD1 ILE A   4      14.999  27.717  29.210  0.00  0.00    +0.000 C 
ENDBRANCH  31  33
ENDBRANCH  23  31
ENDBRANCH  21  23
ENDBRANCH   1  19
BRANCH   1  35
ATOM     35  CB  VAL A   3      13.334  33.676  25.008  0.00  0.00    +0.027 C 
ATOM     36  CG2 VAL A   3      14.819  33.441  24.560  0.00  0.00    +0.002 C 
ATOM     37  CG1 VAL A   3      12.457  33.787  23.766  0.00  0.00    +0.002 C 
ENDBRANCH   1  35
TORSDOF 15
REMARK  Name = ../refined-set-2016/4wup/4wup_pocket.pdb
REMARK  156 active torsions:
REMARK  status: ('A' for Active; 'I' for Inactive)
REMARK    1  A    between atoms: _1  and  _5
REMARK    2  A    between atoms: _5  and  _6
REMARK    3  A    between atoms: _5  and  _8
REMARK    4  A    between atoms: _8  and  _9
REMARK    5  A    between atoms: _19  and  _21
REMARK    6  A    between atoms: _21  and  _22
REMARK    7  A    between atoms: _21  and  _24
REMARK    8  A    between atoms: _24  and  _25
REMARK    9  A    between atoms: _30  and  _31
REMARK   10  A    between atoms: _33  and  _35
REMARK   11  A    between atoms: _35  and  _36
REMARK   12  A    between atoms: _35  and  _38
REMARK   13  A    between atoms: _38  and  _39
REMARK   14  A    between atoms: _42  and  _43
REMARK   15  A    between atoms: _48  and  _50
REMARK   16  A    between atoms: _50  and  _51
REMARK   17  A    between atoms: _50  and  _53
REMARK   18  A    between atoms: _53  and  _54
REMARK   19  A    between atoms: _59  and  _61
REMARK   20  A    between atoms: _61  and  _62
REMARK   21  A    between atoms: _61  and  _64
REMARK   22  A    between atoms: _64  and  _65
REMARK   23  A    between atoms: _67  and  _69
REMARK   24  A    between atoms: _69  and  _70
REMARK   25  A    between atoms: _69  and  _72
REMARK   26  A    between atoms: _72  and  _73
REMARK   27  A    between atoms: _78  and  _80
REMARK   28  A    between atoms: _80  and  _81
REMARK   29  A    between atoms: _80  and  _83
REMARK   30  A    between atoms: _83  and  _84
REMARK   31  A    between atoms: _89  and  _91
REMARK   32  A    between atoms: _91  and  _92
REMARK   33  A    between atoms: _91  and  _94
REMARK   34  A    between atoms: _94  and  _95
REMARK   35  A    between atoms: _101  and  _103
REMARK   36  A    between atoms: _103  and  _104
REMARK   37  A    between atoms: _103  and  _106
REMARK   38  A    between atoms: _106  and  _107
REMARK   39  A    between atoms: _107  and  _108
REMARK   40  A    between atoms: _113  and  _115
REMARK   41  A    between atoms: _115  and  _116
REMARK   42  A    between atoms: _115  and  _118
REMARK   43  A    between atoms: _118  and  _119
REMARK   44  A    between atoms: _125  and  _127
REMARK   45  A    between atoms: _138  and  _141
REMARK   46  A    between atoms: _141  and  _142
REMARK   47  A    between atoms: _150  and  _151
REMARK   48  A    between atoms: _159  and  _161
REMARK   49  A    between atoms: _161  and  _162
REMARK   50  A    between atoms: _161  and  _164
REMARK   51  A    between atoms: _164  and  _165
REMARK   52  A    between atoms: _165  and  _166
REMARK   53  A    between atoms: _169  and  _171
REMARK   54  A    between atoms: _171  and  _172
REMARK   55  A    between atoms: _171  and  _174
REMARK   56  A    between atoms: _174  and  _175
REMARK   57  A    between atoms: _180  and  _182
REMARK   58  A    between atoms: _182  and  _183
REMARK   59  A    between atoms: _182  and  _185
REMARK   60  A    between atoms: _185  and  _186
REMARK   61  A    between atoms: _186  and  _187
REMARK   62  A    between atoms: _190  and  _192
REMARK   63  A    between atoms: _192  and  _193
REMARK   64  A    between atoms: _192  and  _195
REMARK   65  A    between atoms: _195  and  _196
REMARK   66  A    between atoms: _199  and  _201
REMARK   67  A    between atoms: _201  and  _202
REMARK   68  A    between atoms: _201  and  _204
REMARK   69  A    between atoms: _204  and  _205
REMARK   70  A    between atoms: _206  and  ZN_440
REMARK   71  A    between atoms: _210  and  _212
REMARK   72  A    between atoms: _212  and  _213
REMARK   73  A    between atoms: _212  and  _215
REMARK   74  A    between atoms: _218  and  _220
REMARK   75  A    between atoms: _220  and  _221
REMARK   76  A    between atoms: _224  and  _226
REMARK   77  A    between atoms: _226  and  _227
REMARK   78  A    between atoms: _226  and  _229
REMARK   79  A    between atoms: _229  and  _230
REMARK   80  A    between atoms: _235  and  _237
REMARK   81  A    between atoms: _237  and  _238
REMARK   82  A    between atoms: _237  and  _240
REMARK   83  A    between atoms: _240  and  _241
REMARK   84  A    between atoms: _244  and  _246
REMARK   85  A    between atoms: _246  and  _247
REMARK   86  A    between atoms: _250  and  _252
REMARK   87  A    between atoms: _252  and  _253
REMARK   88  A    between atoms: _256  and  _258
REMARK   89  A    between atoms: _258  and  _259
REMARK   90  A    between atoms: _258  and  _261
REMARK   91  A    between atoms: _261  and  _262
REMARK   92  A    between atoms: _264  and  _266
REMARK   93  A    between atoms: _266  and  _267
REMARK   94  A    between atoms: _266  and  _269
REMARK   95  A    between atoms: _269  and  _270
REMARK   96  A    between atoms: _273  and  _275
REMARK   97  A    between atoms: _275  and  _276
REMARK   98  A    between atoms: _279  and  _281
REMARK   99  A    between atoms: _281  and  _282
REMARK  100  A    between atoms: _281  and  _284
REMARK  101  A    between atoms: _287  and  _289
REMARK  102  A    between atoms: _289  and  _290
REMARK  103  A    between atoms: _289  and  _292
REMARK  104  A    between atoms: _292  and  _293
REMARK  105  A    between atoms: _296  and  _298
REMARK  106  A    between atoms: _298  and  _299
REMARK  107  A    between atoms: _301  and  _303
REMARK  108  A    between atoms: _303  and  _304
REMARK  109  A    between atoms: _306  and  _308
REMARK  110  A    between atoms: _308  and  _309
REMARK  111  A    between atoms: _308  and  _311
REMARK  112  A    between atoms: _311  and  _312
REMARK  113  A    between atoms: _314  and  _316
REMARK  114  A    between atoms: _316  and  _317
REMARK  115  A    between atoms: _316  and  _319
REMARK  116  A    between atoms: _319  and  _320
REMARK  117  A    between atoms: _323  and  _325
REMARK  118  A    between atoms: _325  and  _326
REMARK  119  A    between atoms: _325  and  _328
REMARK  120  A    between atoms: _328  and  _329
REMARK  121  A    between atoms: _332  and  _334
REMARK  122  A    between atoms: _334  and  _335
REMARK  123  A    between atoms: _334  and  _337
REMARK  124  A    between atoms: _337  and  _338
REMARK  125  A    between atoms: _344  and  _345
REMARK  126  A    between atoms: _351  and  _352
REMARK  127  A    between atoms: _357  and  _359
REMARK  128  A    between atoms: _359  and  _360
REMARK  129  A    between atoms: _359  and  _362
REMARK  130  A    between atoms: _362  and  _363
REMARK  131  A    between atoms: _366  and  _368
REMARK  132  A    between atoms: _368  and  _369
REMARK  133  A    between atoms: _368  and  _371
REMARK  134  A    between atoms: _371  and  _372
REMARK  135  A    between atoms: _377  and  _378
REMARK  136  A    between atoms: _380  and  _382
REMARK  137  A    between atoms: _382  and  _383
REMARK  138  A    between atoms: _382  and  _385
REMARK  139  A    between atoms: _385  and  _386
REMARK  140  A    between atoms: _388  and  _390
REMARK  141  A    between atoms: _390  and  _391
REMARK  142  A    between atoms: _390  and  _393
REMARK  143  A    between atoms: _396  and  _398
REMARK  144  A    between atoms: _398  and  _399
REMARK  145  A    between atoms: _398  and  _401
REMARK  146  A    between atoms: _401  and  _402
REMARK  147  A    between atoms: _412  and  _414
REMARK  148  A    between atoms: _414  and  _415
REMARK  149  A    between atoms: _414  and  _417
REMARK  150  A    between atoms: _417  and  _418
REMARK  151  A    between atoms: _423  and  _425
REMARK  152  A    between atoms: _425  and  _426
REMARK  153  A    between atoms: _425  and  _428
REMARK  154  A    between atoms: _428  and  _429
REMARK  155  A    between atoms: _429  and  _430
REMARK  156  A    between atoms: _430  and  _431
REMARK                            x       y       z     vdW  Elec       q    Type
REMARK                         _______ _______ _______ _____ _____    ______ ____
ROOT
ATOM      1  CA  HIS A   5      14.979  42.108  16.831  0.00  0.00    +0.155 C 
ENDROOT
BRANCH   1   2
ATOM      2  C   HIS A   5      13.653  42.070  16.094  0.00  0.00    +0.244 C 
ATOM      3  O   HIS A   5      12.683  41.443  16.564  0.00  0.00    -0.273 OA
ATOM      4  N   PRO A   6      13.536  42.849  14.997  0.00  0.00    -0.272 N 
ATOM      5  CD  PRO A   6      14.587  43.666  14.351  0.00  0.00    +0.094 C 
ATOM      6  CG  PRO A   6      13.781  44.531  13.412  0.00  0.00    +0.024 C 
ATOM      7  CB  PRO A   6      12.766  43.497  12.850  0.00  0.00    +0.031 C 
ATOM      8  CA  PRO A   6      12.281  42.873  14.188  0.00  0.00    +0.152 C 
BRANCH   8   9
ATOM      9  C   PRO A   6      11.812  41.451  13.955  0.00  0.00    +0.244 C 
ATOM     10  N   PRO A   7      10.510  41.233  14.093  0.00  0.00    -0.272 N 
ATOM     11  CA  PRO A   7       9.448  42.242  14.196  0.00  0.00    +0.152 C 
ATOM     12  CB  PRO A   7       8.233  41.508  13.629  0.00  0.00    +0.031 C 
ATOM     13  CG  PRO A   7       8.504  40.106  14.041  0.00  0.00    +0.024 C 
ATOM     14  CD  PRO A   7       9.957  39.891  13.822  0.00  0.00    +0.094 C 
ATOM     15  O   PRO A   6      12.630  40.568  13.670  0.00  0.00    -0.273 OA
BRANCH  11  16
ATOM     16  C   PRO A   7       9.138  42.712  15.630  0.00  0.00    +0.241 C 
ATOM     17  N   LEU A   8       9.980  42.328  16.610  0.00  0.00    -0.297 N 
ATOM     18  H   LEU A   8      10.672  41.570  16.444  0.00  0.00    +0.150 HD
ATOM     19  O   PRO A   7       8.136  43.445  15.838  0.00  0.00    -0.273 OA
BRANCH  17  20
ATOM     20  CA  LEU A   8       9.904  43.002  17.926  0.00  0.00    +0.149 C 
BRANCH  20  21
ATOM     21  C   LEU A   8       8.561  42.785  18.669  0.00  0.00    +0.241 C 
ATOM     22  O   LEU A   8       8.199  43.572  19.570  0.00  0.00    -0.273 OA
ATOM     23  N   TYR A   9       7.850  41.672  18.373  0.00  0.00    -0.298 N 
ATOM     24  H   TYR A   9       8.244  40.977  17.707  0.00  0.00    +0.150 HD
BRANCH  23  25
ATOM     25  CA  TYR A   9       6.557  41.431  18.964  0.00  0.00    +0.141 C 
BRANCH  25  26
ATOM     26  C   TYR A   9       6.688  41.339  20.469  0.00  0.00    +0.227 C 
ATOM     27  O   TYR A   9       7.614  40.690  20.970  0.00  0.00    -0.286 OA
ENDBRANCH  25  26
BRANCH  25  28
ATOM     28  CB  TYR A   9       6.049  40.017  18.581  0.00  0.00    +0.054 C 
BRANCH  28  29
ATOM     29  CG  TYR A   9       5.675  39.900  17.084  0.00  0.00    -0.020 A 
ATOM     30  CD2 TYR A   9       5.100  40.964  16.410  0.00  0.00    -0.001 A 
ATOM     31  CE2 TYR A   9       4.721  40.861  15.062  0.00  0.00    +0.036 A 
ATOM     32  CZ  TYR A   9       4.890  39.644  14.410  0.00  0.00    +0.134 A 
ATOM     33  CE1 TYR A   9       5.457  38.585  15.062  0.00  0.00    +0.036 A 
ATOM     34  CD1 TYR A   9       5.848  38.709  16.404  0.00  0.00    -0.001 A 
BRANCH  32  35
ATOM     35  OH  TYR A   9       4.542  39.511  13.049  0.00  0.00    -0.506 OA
ATOM     36  HH  TYR A   9       4.146  40.359  12.726  0.00  0.00    +0.292 HD
ENDBRANCH  32  35
ENDBRANCH  28  29
ENDBRANCH  25  28
ENDBRANCH  23  25
ENDBRANCH  20  21
BRANCH  20  37
ATOM     37  CB  LEU A   8      10.217  44.502  17.735  0.00  0.00    +0.029 C 
BRANCH  37  38
ATOM     38  CG  LEU A   8      11.600  44.878  17.252  0.00  0.00    +0.002 C 
ATOM     39  CD2 LEU A   8      12.668  44.608  18.317  0.00  0.00    +0.000 C 
ATOM     40  CD1 LEU A   8      11.587  46.384  17.089  0.00  0.00    +0.000 C 
ENDBRANCH  37  38
ENDBRANCH  20  37
ENDBRANCH  17  20
ENDBRANCH  11  16
ENDBRANCH   8   9
ENDBRANCH   1   2
BRANCH   1  43
ATOM     41  C   THR A   4      15.346  42.081  19.228  0.00  0.00    +0.243 C 
ATOM     42  O   THR A   4      16.246  42.924  19.136  0.00  0.00    -0.273 OA
ATOM     43  N   HIS A   5      14.704  41.591  18.178  0.00  0.00    -0.297 N 
ATOM     44  H   HIS A   5      14.001  40.836  18.308  0.00  0.00    +0.150 HD
BRANCH  41  45
ATOM     45  CA  THR A   4      14.869  41.550  20.592  0.00  0.00    +0.176 C 
BRANCH  45  48
ATOM     46  C   LEU A   3      12.574  40.790  20.594  0.00  0.00    +0.241 C 
ATOM     47  O   LEU A   3      12.179  41.965  20.563  0.00  0.00    -0.273 OA
ATOM     48  N   THR A   4      13.861  40.481  20.548  0.00  0.00    -0.295 N 
ATOM     49  H   THR A   4      14.157  39.486  20.481  0.00  0.00    +0.150 HD
BRANCH  46  50
ATOM     50  CA  LEU A   3      11.612  39.655  20.635  0.00  0.00    +0.149 C 
BRANCH  50  53
ATOM     51  C   SER A   2      10.644  40.351  22.753  0.00  0.00    +0.243 C 
ATOM     52  O   SER A   2      11.663  40.053  23.396  0.00  0.00    -0.273 OA
ATOM     53  N   LEU A   3      10.469  40.073  21.458  0.00  0.00    -0.297 N 
ATOM     54  H   LEU A   3       9.523  40.153  21.032  0.00  0.00    +0.150 HD
BRANCH  51  55
ATOM     55  CA  SER A   2       9.535  41.122  23.389  0.00  0.00    +0.178 C 
BRANCH  55  58
ATOM     56  C   GLY A   1       8.673  41.082  25.671  0.00  0.00    +0.240 C 
ATOM     57  O   GLY A   1       7.520  40.721  25.312  0.00  0.00    -0.274 OA
ATOM     58  N   SER A   2       9.712  41.197  24.855  0.00  0.00    -0.295 N 
ATOM     59  H   SER A   2      10.663  41.342  25.251  0.00  0.00    +0.150 HD
BRANCH  56  60
ATOM     60  CA  GLY A   1       8.930  41.483  27.117  0.00  0.00    +0.169 C 
BRANCH  60  61
ATOM     61  N   GLY A   1       8.180  40.695  28.060  0.00  0.00    -0.236 NA
ATOM     62  H   GLY A   1       7.920  39.716  27.823  0.00  0.00    +0.142 HD
ENDBRANCH  60  61
ENDBRANCH  56  60
ENDBRANCH  55  58
BRANCH  55  63
ATOM     63  CB  SER A   2       9.594  42.537  22.848  0.00  0.00    +0.166 C 
BRANCH  63  64
ATOM     64  OG  SER A   2      10.931  43.119  22.807  0.00  0.00    -0.380 OA
ATOM     65  H   SER A   2      11.513  42.566  22.227  0.00  0.00    +0.211 HD
ENDBRANCH  63  64
ENDBRANCH  55  63
ENDBRANCH  51  55
ENDBRANCH  50  53
BRANCH  50  66
ATOM     66  CB  LEU A   3      11.133  39.374  19.158  0.00  0.00    +0.029 C 
BRANCH  66  67
ATOM     67  CG  LEU A   3      10.004  38.373  19.053  0.00  0.00    +0.002 C 
ATOM     68  CD2 LEU A   3      10.578  37.031  19.456  0.00  0.00    +0.000 C 
ATOM     69  CD1 LEU A   3       9.540  38.274  17.601  0.00  0.00    +0.000 C 
ENDBRANCH  66  67
ENDBRANCH  50  66
ENDBRANCH  46  50
ENDBRANCH  45  48
BRANCH  45  70
ATOM     70  CB  THR A   4      16.151  41.166  21.418  0.00  0.00    +0.137 C 
ATOM     71  CG2 THR A   4      15.704  40.651  22.768  0.00  0.00    +0.034 C 
BRANCH  70  72
ATOM     72  OG1 THR A   4      16.834  40.079  20.782  0.00  0.00    -0.382 OA
ATOM     73  HG1 THR A   4      17.639  39.844  21.308  0.00  0.00    +0.210 HD
ENDBRANCH  70  72
ENDBRANCH  45  70
ENDBRANCH  41  45
ENDBRANCH   1  43
BRANCH   1  74
ATOM     74  CB  HIS A   5      16.179  41.440  16.076  0.00  0.00    +0.076 C 
BRANCH  74  75
ATOM     75  CG  HIS A   5      16.000  39.984  15.749  0.00  0.00    +0.082 A 
ATOM     76  CD2 HIS A   5      16.726  38.873  16.129  0.00  0.00    +0.115 A 
ATOM     77  NE2 HIS A   5      16.142  37.766  15.494  0.00  0.00    -0.221 NA
ATOM     78  CE1 HIS A   5      15.130  38.199  14.735  0.00  0.00    +0.199 A 
ATOM     79  ND1 HIS A   5      15.047  39.552  14.882  0.00  0.00    -0.227 NA
ENDBRANCH  74  75
ENDBRANCH   1  74
TORSDOF 29
REMARK  Name = ../refined-set-2016/4wup/4wup_pocket.pdb
REMARK  156 active torsions:
REMARK  status: ('A' for Active; 'I' for Inactive)
REMARK    1  A    between atoms: _1  and  _5
REMARK    2  A    between atoms: _5  and  _6
REMARK    3  A    between atoms: _5  and  _8
REMARK    4  A    between atoms: _8  and  _9
REMARK    5  A    between atoms: _19  and  _21
REMARK    6  A    between atoms: _21  and  _22
REMARK    7  A    between atoms: _21  and  _24
REMARK    8  A    between atoms: _24  and  _25
REMARK    9  A    between atoms: _30  and  _31
REMARK   10  A    between atoms: _33  and  _35
REMARK   11  A    between atoms: _35  and  _36
REMARK   12  A    between atoms: _35  and  _38
REMARK   13  A    between atoms: _38  and  _39
REMARK   14  A    between atoms: _42  and  _43
REMARK   15  A    between atoms: _48  and  _50
REMARK   16  A    between atoms: _50  and  _51
REMARK   17  A    between atoms: _50  and  _53
REMARK   18  A    between atoms: _53  and  _54
REMARK   19  A    between atoms: _59  and  _61
REMARK   20  A    between atoms: _61  and  _62
REMARK   21  A    between atoms: _61  and  _64
REMARK   22  A    between atoms: _64  and  _65
REMARK   23  A    between atoms: _67  and  _69
REMARK   24  A    between atoms: _69  and  _70
REMARK   25  A    between atoms: _69  and  _72
REMARK   26  A    between atoms: _72  and  _73
REMARK   27  A    between atoms: _78  and  _80
REMARK   28  A    between atoms: _80  and  _81
REMARK   29  A    between atoms: _80  and  _83
REMARK   30  A    between atoms: _83  and  _84
REMARK   31  A    between atoms: _89  and  _91
REMARK   32  A    between atoms: _91  and  _92
REMARK   33  A    between atoms: _91  and  _94
REMARK   34  A    between atoms: _94  and  _95
REMARK   35  A    between atoms: _101  and  _103
REMARK   36  A    between atoms: _103  and  _104
REMARK   37  A    between atoms: _103  and  _106
REMARK   38  A    between atoms: _106  and  _107
REMARK   39  A    between atoms: _107  and  _108
REMARK   40  A    between atoms: _113  and  _115
REMARK   41  A    between atoms: _115  and  _116
REMARK   42  A    between atoms: _115  and  _118
REMARK   43  A    between atoms: _118  and  _119
REMARK   44  A    between atoms: _125  and  _127
REMARK   45  A    between atoms: _138  and  _141
REMARK   46  A    between atoms: _141  and  _142
REMARK   47  A    between atoms: _150  and  _151
REMARK   48  A    between atoms: _159  and  _161
REMARK   49  A    between atoms: _161  and  _162
REMARK   50  A    between atoms: _161  and  _164
REMARK   51  A    between atoms: _164  and  _165
REMARK   52  A    between atoms: _165  and  _166
REMARK   53  A    between atoms: _169  and  _171
REMARK   54  A    between atoms: _171  and  _172
REMARK   55  A    between atoms: _171  and  _174
REMARK   56  A    between atoms: _174  and  _175
REMARK   57  A    between atoms: _180  and  _182
REMARK   58  A    between atoms: _182  and  _183
REMARK   59  A    between atoms: _182  and  _185
REMARK   60  A    between atoms: _185  and  _186
REMARK   61  A    between atoms: _186  and  _187
REMARK   62  A    between atoms: _190  and  _192
REMARK   63  A    between atoms: _192  and  _193
REMARK   64  A    between atoms: _192  and  _195
REMARK   65  A    between atoms: _195  and  _196
REMARK   66  A    between atoms: _199  and  _201
REMARK   67  A    between atoms: _201  and  _202
REMARK   68  A    between atoms: _201  and  _204
REMARK   69  A    between atoms: _204  and  _205
REMARK   70  A    between atoms: _206  and  ZN_440
REMARK   71  A    between atoms: _210  and  _212
REMARK   72  A    between atoms: _212  and  _213
REMARK   73  A    between atoms: _212  and  _215
REMARK   74  A    between atoms: _218  and  _220
REMARK   75  A    between atoms: _220  and  _221
REMARK   76  A    between atoms: _224  and  _226
REMARK   77  A    between atoms: _226  and  _227
REMARK   78  A    between atoms: _226  and  _229
REMARK   79  A    between atoms: _229  and  _230
REMARK   80  A    between atoms: _235  and  _237
REMARK   81  A    between atoms: _237  and  _238
REMARK   82  A    between atoms: _237  and  _240
REMARK   83  A    between atoms: _240  and  _241
REMARK   84  A    between atoms: _244  and  _246
REMARK   85  A    between atoms: _246  and  _247
REMARK   86  A    between atoms: _250  and  _252
REMARK   87  A    between atoms: _252  and  _253
REMARK   88  A    between atoms: _256  and  _258
REMARK   89  A    between atoms: _258  and  _259
REMARK   90  A    between atoms: _258  and  _261
REMARK   91  A    between atoms: _261  and  _262
REMARK   92  A    between atoms: _264  and  _266
REMARK   93  A    between atoms: _266  and  _267
REMARK   94  A    between atoms: _266  and  _269
REMARK   95  A    between atoms: _269  and  _270
REMARK   96  A    between atoms: _273  and  _275
REMARK   97  A    between atoms: _275  and  _276
REMARK   98  A    between atoms: _279  and  _281
REMARK   99  A    between atoms: _281  and  _282
REMARK  100  A    between atoms: _281  and  _284
REMARK  101  A    between atoms: _287  and  _289
REMARK  102  A    between atoms: _289  and  _290
REMARK  103  A    between atoms: _289  and  _292
REMARK  104  A    between atoms: _292  and  _293
REMARK  105  A    between atoms: _296  and  _298
REMARK  106  A    between atoms: _298  and  _299
REMARK  107  A    between atoms: _301  and  _303
REMARK  108  A    between atoms: _303  and  _304
REMARK  109  A    between atoms: _306  and  _308
REMARK  110  A    between atoms: _308  and  _309
REMARK  111  A    between atoms: _308  and  _311
REMARK  112  A    between atoms: _311  and  _312
REMARK  113  A    between atoms: _314  and  _316
REMARK  114  A    between atoms: _316  and  _317
REMARK  115  A    between atoms: _316  and  _319
REMARK  116  A    between atoms: _319  and  _320
REMARK  117  A    between atoms: _323  and  _325
REMARK  118  A    between atoms: _325  and  _326
REMARK  119  A    between atoms: _325  and  _328
REMARK  120  A    between atoms: _328  and  _329
REMARK  121  A    between atoms: _332  and  _334
REMARK  122  A    between atoms: _334  and  _335
REMARK  123  A    between atoms: _334  and  _337
REMARK  124  A    between atoms: _337  and  _338
REMARK  125  A    between atoms: _344  and  _345
REMARK  126  A    between atoms: _351  and  _352
REMARK  127  A    between atoms: _357  and  _359
REMARK  128  A    between atoms: _359  and  _360
REMARK  129  A    between atoms: _359  and  _362
REMARK  130  A    between atoms: _362  and  _363
REMARK  131  A    between atoms: _366  and  _368
REMARK  132  A    between atoms: _368  and  _369
REMARK  133  A    between atoms: _368  and  _371
REMARK  134  A    between atoms: _371  and  _372
REMARK  135  A    between atoms: _377  and  _378
REMARK  136  A    between atoms: _380  and  _382
REMARK  137  A    between atoms: _382  and  _383
REMARK  138  A    between atoms: _382  and  _385
REMARK  139  A    between atoms: _385  and  _386
REMARK  140  A    between atoms: _388  and  _390
REMARK  141  A    between atoms: _390  and  _391
REMARK  142  A    between atoms: _390  and  _393
REMARK  143  A    between atoms: _396  and  _398
REMARK  144  A    between atoms: _398  and  _399
REMARK  145  A    between atoms: _398  and  _401
REMARK  146  A    between atoms: _401  and  _402
REMARK  147  A    between atoms: _412  and  _414
REMARK  148  A    between atoms: _414  and  _415
REMARK  149  A    between atoms: _414  and  _417
REMARK  150  A    between atoms: _417  and  _418
REMARK  151  A    between atoms: _423  and  _425
REMARK  152  A    between atoms: _425  and  _426
REMARK  153  A    between atoms: _425  and  _428
REMARK  154  A    between atoms: _428  and  _429
REMARK  155  A    between atoms: _429  and  _430
REMARK  156  A    between atoms: _430  and  _431
REMARK                            x       y       z     vdW  Elec       q    Type
REMARK                         _______ _______ _______ _____ _____    ______ ____
ROOT
ATOM      1  C   SER A   1       5.900  37.191  23.810  0.00  0.00    +0.241 C 
ATOM      2  N   VAL A   2       6.952  37.731  24.431  0.00  0.00    -0.298 N 
ATOM      3  H   VAL A   2       7.064  38.765  24.440  0.00  0.00    +0.150 HD
ATOM      4  O   SER A   1       5.578  36.018  23.940  0.00  0.00    -0.274 OA
ENDROOT
BRANCH   1   5
ATOM      5  CA  SER A   1       5.046  38.119  22.965  0.00  0.00    +0.174 C 
BRANCH   5   6
ATOM      6  N   SER A   1       5.583  39.422  22.820  0.00  0.00    -0.236 NA
ATOM      7  H   SER A   1       6.555  39.505  22.460  0.00  0.00    +0.142 HD
ENDBRANCH   5   6
BRANCH   5   8
ATOM      8  CB  SER A   1       4.920  37.511  21.546  0.00  0.00    +0.163 C 
BRANCH   8   9
ATOM      9  OG  SER A   1       6.176  37.461  20.897  0.00  0.00    -0.380 OA
ATOM     10  H   SER A   1       6.065  37.069  19.995  0.00  0.00    +0.211 HD
ENDBRANCH   8   9
ENDBRANCH   5   8
ENDBRANCH   1   5
BRANCH   2  11
ATOM     11  CA  VAL A   2       7.955  36.889  25.103  0.00  0.00    +0.137 C 
BRANCH  11  12
ATOM     12  CB  VAL A   2       9.366  37.241  24.643  0.00  0.00    +0.026 C 
ATOM     13  CG2 VAL A   2      10.401  36.346  25.314  0.00  0.00    +0.002 C 
ATOM     14  CG1 VAL A   2       9.476  37.017  23.132  0.00  0.00    +0.002 C 
ENDBRANCH  11  12
BRANCH  11  15
ATOM     15  C   VAL A   2       7.876  37.079  26.639  0.00  0.00    +0.227 C 
ATOM     16  O   VAL A   2       8.052  38.206  27.167  0.00  0.00    -0.286 OA
ENDBRANCH  11  15
ENDBRANCH   2  11
TORSDOF 7
REMARK  Name = ../refined-set-2016/4wup/4wup_pocket.pdb
REMARK  156 active torsions:
REMARK  status: ('A' for Active; 'I' for Inactive)
REMARK    1  A    between atoms: _1  and  _5
REMARK    2  A    between atoms: _5  and  _6
REMARK    3  A    between atoms: _5  and  _8
REMARK    4  A    between atoms: _8  and  _9
REMARK    5  A    between atoms: _19  and  _21
REMARK    6  A    between atoms: _21  and  _22
REMARK    7  A    between atoms: _21  and  _24
REMARK    8  A    between atoms: _24  and  _25
REMARK    9  A    between atoms: _30  and  _31
REMARK   10  A    between atoms: _33  and  _35
REMARK   11  A    between atoms: _35  and  _36
REMARK   12  A    between atoms: _35  and  _38
REMARK   13  A    between atoms: _38  and  _39
REMARK   14  A    between atoms: _42  and  _43
REMARK   15  A    between atoms: _48  and  _50
REMARK   16  A    between atoms: _50  and  _51
REMARK   17  A    between atoms: _50  and  _53
REMARK   18  A    between atoms: _53  and  _54
REMARK   19  A    between atoms: _59  and  _61
REMARK   20  A    between atoms: _61  and  _62
REMARK   21  A    between atoms: _61  and  _64
REMARK   22  A    between atoms: _64  and  _65
REMARK   23  A    between atoms: _67  and  _69
REMARK   24  A    between atoms: _69  and  _70
REMARK   25  A    between atoms: _69  and  _72
REMARK   26  A    between atoms: _72  and  _73
REMARK   27  A    between atoms: _78  and  _80
REMARK   28  A    between atoms: _80  and  _81
REMARK   29  A    between atoms: _80  and  _83
REMARK   30  A    between atoms: _83  and  _84
REMARK   31  A    between atoms: _89  and  _91
REMARK   32  A    between atoms: _91  and  _92
REMARK   33  A    between atoms: _91  and  _94
REMARK   34  A    between atoms: _94  and  _95
REMARK   35  A    between atoms: _101  and  _103
REMARK   36  A    between atoms: _103  and  _104
REMARK   37  A    between atoms: _103  and  _106
REMARK   38  A    between atoms: _106  and  _107
REMARK   39  A    between atoms: _107  and  _108
REMARK   40  A    between atoms: _113  and  _115
REMARK   41  A    between atoms: _115  and  _116
REMARK   42  A    between atoms: _115  and  _118
REMARK   43  A    between atoms: _118  and  _119
REMARK   44  A    between atoms: _125  and  _127
REMARK   45  A    between atoms: _138  and  _141
REMARK   46  A    between atoms: _141  and  _142
REMARK   47  A    between atoms: _150  and  _151
REMARK   48  A    between atoms: _159  and  _161
REMARK   49  A    between atoms: _161  and  _162
REMARK   50  A    between atoms: _161  and  _164
REMARK   51  A    between atoms: _164  and  _165
REMARK   52  A    between atoms: _165  and  _166
REMARK   53  A    between atoms: _169  and  _171
REMARK   54  A    between atoms: _171  and  _172
REMARK   55  A    between atoms: _171  and  _174
REMARK   56  A    between atoms: _174  and  _175
REMARK   57  A    between atoms: _180  and  _182
REMARK   58  A    between atoms: _182  and  _183
REMARK   59  A    between atoms: _182  and  _185
REMARK   60  A    between atoms: _185  and  _186
REMARK   61  A    between atoms: _186  and  _187
REMARK   62  A    between atoms: _190  and  _192
REMARK   63  A    between atoms: _192  and  _193
REMARK   64  A    between atoms: _192  and  _195
REMARK   65  A    between atoms: _195  and  _196
REMARK   66  A    between atoms: _199  and  _201
REMARK   67  A    between atoms: _201  and  _202
REMARK   68  A    between atoms: _201  and  _204
REMARK   69  A    between atoms: _204  and  _205
REMARK   70  A    between atoms: _206  and  ZN_440
REMARK   71  A    between atoms: _210  and  _212
REMARK   72  A    between atoms: _212  and  _213
REMARK   73  A    between atoms: _212  and  _215
REMARK   74  A    between atoms: _218  and  _220
REMARK   75  A    between atoms: _220  and  _221
REMARK   76  A    between atoms: _224  and  _226
REMARK   77  A    between atoms: _226  and  _227
REMARK   78  A    between atoms: _226  and  _229
REMARK   79  A    between atoms: _229  and  _230
REMARK   80  A    between atoms: _235  and  _237
REMARK   81  A    between atoms: _237  and  _238
REMARK   82  A    between atoms: _237  and  _240
REMARK   83  A    between atoms: _240  and  _241
REMARK   84  A    between atoms: _244  and  _246
REMARK   85  A    between atoms: _246  and  _247
REMARK   86  A    between atoms: _250  and  _252
REMARK   87  A    between atoms: _252  and  _253
REMARK   88  A    between atoms: _256  and  _258
REMARK   89  A    between atoms: _258  and  _259
REMARK   90  A    between atoms: _258  and  _261
REMARK   91  A    between atoms: _261  and  _262
REMARK   92  A    between atoms: _264  and  _266
REMARK   93  A    between atoms: _266  and  _267
REMARK   94  A    between atoms: _266  and  _269
REMARK   95  A    between atoms: _269  and  _270
REMARK   96  A    between atoms: _273  and  _275
REMARK   97  A    between atoms: _275  and  _276
REMARK   98  A    between atoms: _279  and  _281
REMARK   99  A    between atoms: _281  and  _282
REMARK  100  A    between atoms: _281  and  _284
REMARK  101  A    between atoms: _287  and  _289
REMARK  102  A    between atoms: _289  and  _290
REMARK  103  A    between atoms: _289  and  _292
REMARK  104  A    between atoms: _292  and  _293
REMARK  105  A    between atoms: _296  and  _298
REMARK  106  A    between atoms: _298  and  _299
REMARK  107  A    between atoms: _301  and  _303
REMARK  108  A    between atoms: _303  and  _304
REMARK  109  A    between atoms: _306  and  _308
REMARK  110  A    between atoms: _308  and  _309
REMARK  111  A    between atoms: _308  and  _311
REMARK  112  A    between atoms: _311  and  _312
REMARK  113  A    between atoms: _314  and  _316
REMARK  114  A    between atoms: _316  and  _317
REMARK  115  A    between atoms: _316  and  _319
REMARK  116  A    between atoms: _319  and  _320
REMARK  117  A    between atoms: _323  and  _325
REMARK  118  A    between atoms: _325  and  _326
REMARK  119  A    between atoms: _325  and  _328
REMARK  120  A    between atoms: _328  and  _329
REMARK  121  A    between atoms: _332  and  _334
REMARK  122  A    between atoms: _334  and  _335
REMARK  123  A    between atoms: _334  and  _337
REMARK  124  A    between atoms: _337  and  _338
REMARK  125  A    between atoms: _344  and  _345
REMARK  126  A    between atoms: _351  and  _352
REMARK  127  A    between atoms: _357  and  _359
REMARK  128  A    between atoms: _359  and  _360
REMARK  129  A    between atoms: _359  and  _362
REMARK  130  A    between atoms: _362  and  _363
REMARK  131  A    between atoms: _366  and  _368
REMARK  132  A    between atoms: _368  and  _369
REMARK  133  A    between atoms: _368  and  _371
REMARK  134  A    between atoms: _371  and  _372
REMARK  135  A    between atoms: _377  and  _378
REMARK  136  A    between atoms: _380  and  _382
REMARK  137  A    between atoms: _382  and  _383
REMARK  138  A    between atoms: _382  and  _385
REMARK  139  A    between atoms: _385  and  _386
REMARK  140  A    between atoms: _388  and  _390
REMARK  141  A    between atoms: _390  and  _391
REMARK  142  A    between atoms: _390  and  _393
REMARK  143  A    between atoms: _396  and  _398
REMARK  144  A    between atoms: _398  and  _399
REMARK  145  A    between atoms: _398  and  _401
REMARK  146  A    between atoms: _401  and  _402
REMARK  147  A    between atoms: _412  and  _414
REMARK  148  A    between atoms: _414  and  _415
REMARK  149  A    between atoms: _414  and  _417
REMARK  150  A    between atoms: _417  and  _418
REMARK  151  A    between atoms: _423  and  _425
REMARK  152  A    between atoms: _425  and  _426
REMARK  153  A    between atoms: _425  and  _428
REMARK  154  A    between atoms: _428  and  _429
REMARK  155  A    between atoms: _429  and  _430
REMARK  156  A    between atoms: _430  and  _431
REMARK                            x       y       z     vdW  Elec       q    Type
REMARK                         _______ _______ _______ _____ _____    ______ ____
ROOT
ATOM      1  CG  TRP A   1      12.680  37.911  28.105  0.00  0.00    -0.002 A 
ATOM      2  CD1 TRP A   1      11.891  38.823  27.376  0.00  0.00    +0.068 A 
ATOM      3  NE1 TRP A   1      12.363  38.924  26.062  0.00  0.00    -0.352 N 
ATOM      4  CE2 TRP A   1      13.447  38.093  25.888  0.00  0.00    +0.056 A 
ATOM      5  CZ2 TRP A   1      14.245  37.862  24.761  0.00  0.00    +0.017 A 
ATOM      6  CH2 TRP A   1      15.285  36.972  24.900  0.00  0.00    +0.001 A 
ATOM      7  CZ3 TRP A   1      15.512  36.264  26.096  0.00  0.00    +0.000 A 
ATOM      8  CE3 TRP A   1      14.702  36.475  27.231  0.00  0.00    +0.001 A 
ATOM      9  HE1 TRP A   1      11.955  39.536  25.326  0.00  0.00    +0.166 HD
ATOM     10  CD2 TRP A   1      13.686  37.407  27.147  0.00  0.00    +0.013 A 
ENDROOT
BRANCH   1  11
ATOM     11  CB  TRP A   1      12.514  37.433  29.532  0.00  0.00    +0.053 C 
BRANCH  11  12
ATOM     12  CA  TRP A   1      11.728  36.122  29.575  0.00  0.00    +0.137 C 
BRANCH  12  13
ATOM     13  N   TRP A   1      10.282  36.363  29.449  0.00  0.00    -0.239 NA
ATOM     14  H   TRP A   1       9.872  37.242  29.824  0.00  0.00    +0.142 HD
ENDBRANCH  12  13
BRANCH  12  15
ATOM     15  C   TRP A   1      12.061  35.376  30.862  0.00  0.00    +0.224 C 
ATOM     16  O   TRP A   1      11.432  35.631  31.901  0.00  0.00    -0.287 OA
ENDBRANCH  12  15
ENDBRANCH  11  12
ENDBRANCH   1  11
TORSDOF 4
REMARK  Name = ../refined-set-2016/4wup/4wup_pocket.pdb
REMARK  156 active torsions:
REMARK  status: ('A' for Active; 'I' for Inactive)
REMARK    1  A    between atoms: _1  and  _5
REMARK    2  A    between atoms: _5  and  _6
REMARK    3  A    between atoms: _5  and  _8
REMARK    4  A    between atoms: _8  and  _9
REMARK    5  A    between atoms: _19  and  _21
REMARK    6  A    between atoms: _21  and  _22
REMARK    7  A    between atoms: _21  and  _24
REMARK    8  A    between atoms: _24  and  _25
REMARK    9  A    between atoms: _30  and  _31
REMARK   10  A    between atoms: _33  and  _35
REMARK   11  A    between atoms: _35  and  _36
REMARK   12  A    between atoms: _35  and  _38
REMARK   13  A    between atoms: _38  and  _39
REMARK   14  A    between atoms: _42  and  _43
REMARK   15  A    between atoms: _48  and  _50
REMARK   16  A    between atoms: _50  and  _51
REMARK   17  A    between atoms: _50  and  _53
REMARK   18  A    between atoms: _53  and  _54
REMARK   19  A    between atoms: _59  and  _61
REMARK   20  A    between atoms: _61  and  _62
REMARK   21  A    between atoms: _61  and  _64
REMARK   22  A    between atoms: _64  and  _65
REMARK   23  A    between atoms: _67  and  _69
REMARK   24  A    between atoms: _69  and  _70
REMARK   25  A    between atoms: _69  and  _72
REMARK   26  A    between atoms: _72  and  _73
REMARK   27  A    between atoms: _78  and  _80
REMARK   28  A    between atoms: _80  and  _81
REMARK   29  A    between atoms: _80  and  _83
REMARK   30  A    between atoms: _83  and  _84
REMARK   31  A    between atoms: _89  and  _91
REMARK   32  A    between atoms: _91  and  _92
REMARK   33  A    between atoms: _91  and  _94
REMARK   34  A    between atoms: _94  and  _95
REMARK   35  A    between atoms: _101  and  _103
REMARK   36  A    between atoms: _103  and  _104
REMARK   37  A    between atoms: _103  and  _106
REMARK   38  A    between atoms: _106  and  _107
REMARK   39  A    between atoms: _107  and  _108
REMARK   40  A    between atoms: _113  and  _115
REMARK   41  A    between atoms: _115  and  _116
REMARK   42  A    between atoms: _115  and  _118
REMARK   43  A    between atoms: _118  and  _119
REMARK   44  A    between atoms: _125  and  _127
REMARK   45  A    between atoms: _138  and  _141
REMARK   46  A    between atoms: _141  and  _142
REMARK   47  A    between atoms: _150  and  _151
REMARK   48  A    between atoms: _159  and  _161
REMARK   49  A    between atoms: _161  and  _162
REMARK   50  A    between atoms: _161  and  _164
REMARK   51  A    between atoms: _164  and  _165
REMARK   52  A    between atoms: _165  and  _166
REMARK   53  A    between atoms: _169  and  _171
REMARK   54  A    between atoms: _171  and  _172
REMARK   55  A    between atoms: _171  and  _174
REMARK   56  A    between atoms: _174  and  _175
REMARK   57  A    between atoms: _180  and  _182
REMARK   58  A    between atoms: _182  and  _183
REMARK   59  A    between atoms: _182  and  _185
REMARK   60  A    between atoms: _185  and  _186
REMARK   61  A    between atoms: _186  and  _187
REMARK   62  A    between atoms: _190  and  _192
REMARK   63  A    between atoms: _192  and  _193
REMARK   64  A    between atoms: _192  and  _195
REMARK   65  A    between atoms: _195  and  _196
REMARK   66  A    between atoms: _199  and  _201
REMARK   67  A    between atoms: _201  and  _202
REMARK   68  A    between atoms: _201  and  _204
REMARK   69  A    between atoms: _204  and  _205
REMARK   70  A    between atoms: _206  and  ZN_440
REMARK   71  A    between atoms: _210  and  _212
REMARK   72  A    between atoms: _212  and  _213
REMARK   73  A    between atoms: _212  and  _215
REMARK   74  A    between atoms: _218  and  _220
REMARK   75  A    between atoms: _220  and  _221
REMARK   76  A    between atoms: _224  and  _226
REMARK   77  A    between atoms: _226  and  _227
REMARK   78  A    between atoms: _226  and  _229
REMARK   79  A    between atoms: _229  and  _230
REMARK   80  A    between atoms: _235  and  _237
REMARK   81  A    between atoms: _237  and  _238
REMARK   82  A    between atoms: _237  and  _240
REMARK   83  A    between atoms: _240  and  _241
REMARK   84  A    between atoms: _244  and  _246
REMARK   85  A    between atoms: _246  and  _247
REMARK   86  A    between atoms: _250  and  _252
REMARK   87  A    between atoms: _252  and  _253
REMARK   88  A    between atoms: _256  and  _258
REMARK   89  A    between atoms: _258  and  _259
REMARK   90  A    between atoms: _258  and  _261
REMARK   91  A    between atoms: _261  and  _262
REMARK   92  A    between atoms: _264  and  _266
REMARK   93  A    between atoms: _266  and  _267
REMARK   94  A    between atoms: _266  and  _269
REMARK   95  A    between atoms: _269  and  _270
REMARK   96  A    between atoms: _273  and  _275
REMARK   97  A    between atoms: _275  and  _276
REMARK   98  A    between atoms: _279  and  _281
REMARK   99  A    between atoms: _281  and  _282
REMARK  100  A    between atoms: _281  and  _284
REMARK  101  A    between atoms: _287  and  _289
REMARK  102  A    between atoms: _289  and  _290
REMARK  103  A    between atoms: _289  and  _292
REMARK  104  A    between atoms: _292  and  _293
REMARK  105  A    between atoms: _296  and  _298
REMARK  106  A    between atoms: _298  and  _299
REMARK  107  A    between atoms: _301  and  _303
REMARK  108  A    between atoms: _303  and  _304
REMARK  109  A    between atoms: _306  and  _308
REMARK  110  A    between atoms: _308  and  _309
REMARK  111  A    between atoms: _308  and  _311
REMARK  112  A    between atoms: _311  and  _312
REMARK  113  A    between atoms: _314  and  _316
REMARK  114  A    between atoms: _316  and  _317
REMARK  115  A    between atoms: _316  and  _319
REMARK  116  A    between atoms: _319  and  _320
REMARK  117  A    between atoms: _323  and  _325
REMARK  118  A    between atoms: _325  and  _326
REMARK  119  A    between atoms: _325  and  _328
REMARK  120  A    between atoms: _328  and  _329
REMARK  121  A    between atoms: _332  and  _334
REMARK  122  A    between atoms: _334  and  _335
REMARK  123  A    between atoms: _334  and  _337
REMARK  124  A    between atoms: _337  and  _338
REMARK  125  A    between atoms: _344  and  _345
REMARK  126  A    between atoms: _351  and  _352
REMARK  127  A    between atoms: _357  and  _359
REMARK  128  A    between atoms: _359  and  _360
REMARK  129  A    between atoms: _359  and  _362
REMARK  130  A    between atoms: _362  and  _363
REMARK  131  A    between atoms: _366  and  _368
REMARK  132  A    between atoms: _368  and  _369
REMARK  133  A    between atoms: _368  and  _371
REMARK  134  A    between atoms: _371  and  _372
REMARK  135  A    between atoms: _377  and  _378
REMARK  136  A    between atoms: _380  and  _382
REMARK  137  A    between atoms: _382  and  _383
REMARK  138  A    between atoms: _382  and  _385
REMARK  139  A    between atoms: _385  and  _386
REMARK  140  A    between atoms: _388  and  _390
REMARK  141  A    between atoms: _390  and  _391
REMARK  142  A    between atoms: _390  and  _393
REMARK  143  A    between atoms: _396  and  _398
REMARK  144  A    between atoms: _398  and  _399
REMARK  145  A    between atoms: _398  and  _401
REMARK  146  A    between atoms: _401  and  _402
REMARK  147  A    between atoms: _412  and  _414
REMARK  148  A    between atoms: _414  and  _415
REMARK  149  A    between atoms: _414  and  _417
REMARK  150  A    between atoms: _417  and  _418
REMARK  151  A    between atoms: _423  and  _425
REMARK  152  A    between atoms: _425  and  _426
REMARK  153  A    between atoms: _425  and  _428
REMARK  154  A    between atoms: _428  and  _429
REMARK  155  A    between atoms: _429  and  _430
REMARK  156  A    between atoms: _430  and  _431
REMARK                            x       y       z     vdW  Elec       q    Type
REMARK                         _______ _______ _______ _____ _____    ______ ____
ROOT
ATOM      1  CB  ASN A   1      23.885  40.290  16.264  0.00  0.00    +0.110 C 
ENDROOT
BRANCH   1   2
ATOM      2  CG  ASN A   1      24.476  39.076  16.995  0.00  0.00    +0.221 C 
ATOM      3  OD1 ASN A   1      24.803  39.115  18.191  0.00  0.00    -0.275 OA
ATOM      4  ND2 ASN A   1      24.586  37.931  16.246  0.00  0.00    -0.329 N 
ATOM      5 HD21 ASN A   1      24.953  37.060  16.679  0.00  0.00    +0.145 HD
ATOM      6 HD22 ASN A   1      24.302  37.935  15.245  0.00  0.00    +0.145 HD
ENDBRANCH   1   2
BRANCH   1   7
ATOM      7  CA  ASN A   1      24.177  41.627  16.941  0.00  0.00    +0.142 C 
BRANCH   7   8
ATOM      8  N   ASN A   1      25.583  41.735  17.214  0.00  0.00    -0.239 NA
ATOM      9  H   ASN A   1      25.948  41.554  18.171  0.00  0.00    +0.142 HD
ENDBRANCH   7   8
BRANCH   7  10
ATOM     10  C   ASN A   1      23.332  41.731  18.180  0.00  0.00    +0.225 C 
ATOM     11  O   ASN A   1      22.263  41.068  18.282  0.00  0.00    -0.287 OA
ENDBRANCH   7  10
ENDBRANCH   1   7
TORSDOF 4
REMARK  Name = ../refined-set-2016/4wup/4wup_pocket.pdb
REMARK  156 active torsions:
REMARK  status: ('A' for Active; 'I' for Inactive)
REMARK    1  A    between atoms: _1  and  _5
REMARK    2  A    between atoms: _5  and  _6
REMARK    3  A    between atoms: _5  and  _8
REMARK    4  A    between atoms: _8  and  _9
REMARK    5  A    between atoms: _19  and  _21
REMARK    6  A    between atoms: _21  and  _22
REMARK    7  A    between atoms: _21  and  _24
REMARK    8  A    between atoms: _24  and  _25
REMARK    9  A    between atoms: _30  and  _31
REMARK   10  A    between atoms: _33  and  _35
REMARK   11  A    between atoms: _35  and  _36
REMARK   12  A    between atoms: _35  and  _38
REMARK   13  A    between atoms: _38  and  _39
REMARK   14  A    between atoms: _42  and  _43
REMARK   15  A    between atoms: _48  and  _50
REMARK   16  A    between atoms: _50  and  _51
REMARK   17  A    between atoms: _50  and  _53
REMARK   18  A    between atoms: _53  and  _54
REMARK   19  A    between atoms: _59  and  _61
REMARK   20  A    between atoms: _61  and  _62
REMARK   21  A    between atoms: _61  and  _64
REMARK   22  A    between atoms: _64  and  _65
REMARK   23  A    between atoms: _67  and  _69
REMARK   24  A    between atoms: _69  and  _70
REMARK   25  A    between atoms: _69  and  _72
REMARK   26  A    between atoms: _72  and  _73
REMARK   27  A    between atoms: _78  and  _80
REMARK   28  A    between atoms: _80  and  _81
REMARK   29  A    between atoms: _80  and  _83
REMARK   30  A    between atoms: _83  and  _84
REMARK   31  A    between atoms: _89  and  _91
REMARK   32  A    between atoms: _91  and  _92
REMARK   33  A    between atoms: _91  and  _94
REMARK   34  A    between atoms: _94  and  _95
REMARK   35  A    between atoms: _101  and  _103
REMARK   36  A    between atoms: _103  and  _104
REMARK   37  A    between atoms: _103  and  _106
REMARK   38  A    between atoms: _106  and  _107
REMARK   39  A    between atoms: _107  and  _108
REMARK   40  A    between atoms: _113  and  _115
REMARK   41  A    between atoms: _115  and  _116
REMARK   42  A    between atoms: _115  and  _118
REMARK   43  A    between atoms: _118  and  _119
REMARK   44  A    between atoms: _125  and  _127
REMARK   45  A    between atoms: _138  and  _141
REMARK   46  A    between atoms: _141  and  _142
REMARK   47  A    between atoms: _150  and  _151
REMARK   48  A    between atoms: _159  and  _161
REMARK   49  A    between atoms: _161  and  _162
REMARK   50  A    between atoms: _161  and  _164
REMARK   51  A    between atoms: _164  and  _165
REMARK   52  A    between atoms: _165  and  _166
REMARK   53  A    between atoms: _169  and  _171
REMARK   54  A    between atoms: _171  and  _172
REMARK   55  A    between atoms: _171  and  _174
REMARK   56  A    between atoms: _174  and  _175
REMARK   57  A    between atoms: _180  and  _182
REMARK   58  A    between atoms: _182  and  _183
REMARK   59  A    between atoms: _182  and  _185
REMARK   60  A    between atoms: _185  and  _186
REMARK   61  A    between atoms: _186  and  _187
REMARK   62  A    between atoms: _190  and  _192
REMARK   63  A    between atoms: _192  and  _193
REMARK   64  A    between atoms: _192  and  _195
REMARK   65  A    between atoms: _195  and  _196
REMARK   66  A    between atoms: _199  and  _201
REMARK   67  A    between atoms: _201  and  _202
REMARK   68  A    between atoms: _201  and  _204
REMARK   69  A    between atoms: _204  and  _205
REMARK   70  A    between atoms: _206  and  ZN_440
REMARK   71  A    between atoms: _210  and  _212
REMARK   72  A    between atoms: _212  and  _213
REMARK   73  A    between atoms: _212  and  _215
REMARK   74  A    between atoms: _218  and  _220
REMARK   75  A    between atoms: _220  and  _221
REMARK   76  A    between atoms: _224  and  _226
REMARK   77  A    between atoms: _226  and  _227
REMARK   78  A    between atoms: _226  and  _229
REMARK   79  A    between atoms: _229  and  _230
REMARK   80  A    between atoms: _235  and  _237
REMARK   81  A    between atoms: _237  and  _238
REMARK   82  A    between atoms: _237  and  _240
REMARK   83  A    between atoms: _240  and  _241
REMARK   84  A    between atoms: _244  and  _246
REMARK   85  A    between atoms: _246  and  _247
REMARK   86  A    between atoms: _250  and  _252
REMARK   87  A    between atoms: _252  and  _253
REMARK   88  A    between atoms: _256  and  _258
REMARK   89  A    between atoms: _258  and  _259
REMARK   90  A    between atoms: _258  and  _261
REMARK   91  A    between atoms: _261  and  _262
REMARK   92  A    between atoms: _264  and  _266
REMARK   93  A    between atoms: _266  and  _267
REMARK   94  A    between atoms: _266  and  _269
REMARK   95  A    between atoms: _269  and  _270
REMARK   96  A    between atoms: _273  and  _275
REMARK   97  A    between atoms: _275  and  _276
REMARK   98  A    between atoms: _279  and  _281
REMARK   99  A    between atoms: _281  and  _282
REMARK  100  A    between atoms: _281  and  _284
REMARK  101  A    between atoms: _287  and  _289
REMARK  102  A    between atoms: _289  and  _290
REMARK  103  A    between atoms: _289  and  _292
REMARK  104  A    between atoms: _292  and  _293
REMARK  105  A    between atoms: _296  and  _298
REMARK  106  A    between atoms: _298  and  _299
REMARK  107  A    between atoms: _301  and  _303
REMARK  108  A    between atoms: _303  and  _304
REMARK  109  A    between atoms: _306  and  _308
REMARK  110  A    between atoms: _308  and  _309
REMARK  111  A    between atoms: _308  and  _311
REMARK  112  A    between atoms: _311  and  _312
REMARK  113  A    between atoms: _314  and  _316
REMARK  114  A    between atoms: _316  and  _317
REMARK  115  A    between atoms: _316  and  _319
REMARK  116  A    between atoms: _319  and  _320
REMARK  117  A    between atoms: _323  and  _325
REMARK  118  A    between atoms: _325  and  _326
REMARK  119  A    between atoms: _325  and  _328
REMARK  120  A    between atoms: _328  and  _329
REMARK  121  A    between atoms: _332  and  _334
REMARK  122  A    between atoms: _334  and  _335
REMARK  123  A    between atoms: _334  and  _337
REMARK  124  A    between atoms: _337  and  _338
REMARK  125  A    between atoms: _344  and  _345
REMARK  126  A    between atoms: _351  and  _352
REMARK  127  A    between atoms: _357  and  _359
REMARK  128  A    between atoms: _359  and  _360
REMARK  129  A    between atoms: _359  and  _362
REMARK  130  A    between atoms: _362  and  _363
REMARK  131  A    between atoms: _366  and  _368
REMARK  132  A    between atoms: _368  and  _369
REMARK  133  A    between atoms: _368  and  _371
REMARK  134  A    between atoms: _371  and  _372
REMARK  135  A    between atoms: _377  and  _378
REMARK  136  A    between atoms: _380  and  _382
REMARK  137  A    between atoms: _382  and  _383
REMARK  138  A    between atoms: _382  and  _385
REMARK  139  A    between atoms: _385  and  _386
REMARK  140  A    between atoms: _388  and  _390
REMARK  141  A    between atoms: _390  and  _391
REMARK  142  A    between atoms: _390  and  _393
REMARK  143  A    between atoms: _396  and  _398
REMARK  144  A    between atoms: _398  and  _399
REMARK  145  A    between atoms: _398  and  _401
REMARK  146  A    between atoms: _401  and  _402
REMARK  147  A    between atoms: _412  and  _414
REMARK  148  A    between atoms: _414  and  _415
REMARK  149  A    between atoms: _414  and  _417
REMARK  150  A    between atoms: _417  and  _418
REMARK  151  A    between atoms: _423  and  _425
REMARK  152  A    between atoms: _425  and  _426
REMARK  153  A    between atoms: _425  and  _428
REMARK  154  A    between atoms: _428  and  _429
REMARK  155  A    between atoms: _429  and  _430
REMARK  156  A    between atoms: _430  and  _431
REMARK                            x       y       z     vdW  Elec       q    Type
REMARK                         _______ _______ _______ _____ _____    ______ ____
ROOT
ATOM      1  NE  ARG A   1      15.493  47.003  20.537  0.00  0.00    -0.265 N 
ATOM      2  CZ  ARG A   1      14.185  47.074  20.799  0.00  0.00    +0.342 C 
ATOM      3  NH2 ARG A   1      13.560  46.120  21.471  0.00  0.00    -0.292 N 
ATOM      4 HH21 ARG A   1      14.088  45.290  21.809  0.00  0.00    +0.255 HD
ATOM      5 HH22 ARG A   1      12.541  46.200  21.661  0.00  0.00    +0.255 HD
ATOM      6  NH1 ARG A   1      13.491  48.121  20.331  0.00  0.00    -0.292 N 
ATOM      7 HH11 ARG A   1      12.472  48.197  20.523  0.00  0.00    +0.255 HD
ATOM      8 HH12 ARG A   1      13.972  48.857  19.776  0.00  0.00    +0.255 HD
ATOM      9  HE  ARG A   1      15.938  47.782  20.010  0.00  0.00    +0.259 HD
ENDROOT
BRANCH   1  10
ATOM     10  CD  ARG A   1      16.347  45.851  20.969  0.00  0.00    +0.174 C 
BRANCH  10  11
ATOM     11  CG  ARG A   1      17.805  46.169  20.757  0.00  0.00    +0.045 C 
BRANCH  11  12
ATOM     12  CB  ARG A   1      18.714  44.947  20.799  0.00  0.00    +0.029 C 
BRANCH  12  13
ATOM     13  CA  ARG A   1      20.234  45.299  20.831  0.00  0.00    +0.133 C 
BRANCH  13  14
ATOM     14  N   ARG A   1      21.027  44.106  20.760  0.00  0.00    -0.239 NA
ATOM     15  H   ARG A   1      20.625  43.211  21.104  0.00  0.00    +0.142 HD
ENDBRANCH  13  14
BRANCH  13  16
ATOM     16  C   ARG A   1      20.515  45.956  22.193  0.00  0.00    +0.224 C 
ATOM     17  O   ARG A   1      20.616  45.247  23.223  0.00  0.00    -0.287 OA
ENDBRANCH  13  16
ENDBRANCH  12  13
ENDBRANCH  11  12
ENDBRANCH  10  11
ENDBRANCH   1  10
TORSDOF 6
REMARK  Name = ../refined-set-2016/4wup/4wup_pocket.pdb
REMARK  156 active torsions:
REMARK  status: ('A' for Active; 'I' for Inactive)
REMARK    1  A    between atoms: _1  and  _5
REMARK    2  A    between atoms: _5  and  _6
REMARK    3  A    between atoms: _5  and  _8
REMARK    4  A    between atoms: _8  and  _9
REMARK    5  A    between atoms: _19  and  _21
REMARK    6  A    between atoms: _21  and  _22
REMARK    7  A    between atoms: _21  and  _24
REMARK    8  A    between atoms: _24  and  _25
REMARK    9  A    between atoms: _30  and  _31
REMARK   10  A    between atoms: _33  and  _35
REMARK   11  A    between atoms: _35  and  _36
REMARK   12  A    between atoms: _35  and  _38
REMARK   13  A    between atoms: _38  and  _39
REMARK   14  A    between atoms: _42  and  _43
REMARK   15  A    between atoms: _48  and  _50
REMARK   16  A    between atoms: _50  and  _51
REMARK   17  A    between atoms: _50  and  _53
REMARK   18  A    between atoms: _53  and  _54
REMARK   19  A    between atoms: _59  and  _61
REMARK   20  A    between atoms: _61  and  _62
REMARK   21  A    between atoms: _61  and  _64
REMARK   22  A    between atoms: _64  and  _65
REMARK   23  A    between atoms: _67  and  _69
REMARK   24  A    between atoms: _69  and  _70
REMARK   25  A    between atoms: _69  and  _72
REMARK   26  A    between atoms: _72  and  _73
REMARK   27  A    between atoms: _78  and  _80
REMARK   28  A    between atoms: _80  and  _81
REMARK   29  A    between atoms: _80  and  _83
REMARK   30  A    between atoms: _83  and  _84
REMARK   31  A    between atoms: _89  and  _91
REMARK   32  A    between atoms: _91  and  _92
REMARK   33  A    between atoms: _91  and  _94
REMARK   34  A    between atoms: _94  and  _95
REMARK   35  A    between atoms: _101  and  _103
REMARK   36  A    between atoms: _103  and  _104
REMARK   37  A    between atoms: _103  and  _106
REMARK   38  A    between atoms: _106  and  _107
REMARK   39  A    between atoms: _107  and  _108
REMARK   40  A    between atoms: _113  and  _115
REMARK   41  A    between atoms: _115  and  _116
REMARK   42  A    between atoms: _115  and  _118
REMARK   43  A    between atoms: _118  and  _119
REMARK   44  A    between atoms: _125  and  _127
REMARK   45  A    between atoms: _138  and  _141
REMARK   46  A    between atoms: _141  and  _142
REMARK   47  A    between atoms: _150  and  _151
REMARK   48  A    between atoms: _159  and  _161
REMARK   49  A    between atoms: _161  and  _162
REMARK   50  A    between atoms: _161  and  _164
REMARK   51  A    between atoms: _164  and  _165
REMARK   52  A    between atoms: _165  and  _166
REMARK   53  A    between atoms: _169  and  _171
REMARK   54  A    between atoms: _171  and  _172
REMARK   55  A    between atoms: _171  and  _174
REMARK   56  A    between atoms: _174  and  _175
REMARK   57  A    between atoms: _180  and  _182
REMARK   58  A    between atoms: _182  and  _183
REMARK   59  A    between atoms: _182  and  _185
REMARK   60  A    between atoms: _185  and  _186
REMARK   61  A    between atoms: _186  and  _187
REMARK   62  A    between atoms: _190  and  _192
REMARK   63  A    between atoms: _192  and  _193
REMARK   64  A    between atoms: _192  and  _195
REMARK   65  A    between atoms: _195  and  _196
REMARK   66  A    between atoms: _199  and  _201
REMARK   67  A    between atoms: _201  and  _202
REMARK   68  A    between atoms: _201  and  _204
REMARK   69  A    between atoms: _204  and  _205
REMARK   70  A    between atoms: _206  and  ZN_440
REMARK   71  A    between atoms: _210  and  _212
REMARK   72  A    between atoms: _212  and  _213
REMARK   73  A    between atoms: _212  and  _215
REMARK   74  A    between atoms: _218  and  _220
REMARK   75  A    between atoms: _220  and  _221
REMARK   76  A    between atoms: _224  and  _226
REMARK   77  A    between atoms: _226  and  _227
REMARK   78  A    between atoms: _226  and  _229
REMARK   79  A    between atoms: _229  and  _230
REMARK   80  A    between atoms: _235  and  _237
REMARK   81  A    between atoms: _237  and  _238
REMARK   82  A    between atoms: _237  and  _240
REMARK   83  A    between atoms: _240  and  _241
REMARK   84  A    between atoms: _244  and  _246
REMARK   85  A    between atoms: _246  and  _247
REMARK   86  A    between atoms: _250  and  _252
REMARK   87  A    between atoms: _252  and  _253
REMARK   88  A    between atoms: _256  and  _258
REMARK   89  A    between atoms: _258  and  _259
REMARK   90  A    between atoms: _258  and  _261
REMARK   91  A    between atoms: _261  and  _262
REMARK   92  A    between atoms: _264  and  _266
REMARK   93  A    between atoms: _266  and  _267
REMARK   94  A    between atoms: _266  and  _269
REMARK   95  A    between atoms: _269  and  _270
REMARK   96  A    between atoms: _273  and  _275
REMARK   97  A    between atoms: _275  and  _276
REMARK   98  A    between atoms: _279  and  _281
REMARK   99  A    between atoms: _281  and  _282
REMARK  100  A    between atoms: _281  and  _284
REMARK  101  A    between atoms: _287  and  _289
REMARK  102  A    between atoms: _289  and  _290
REMARK  103  A    between atoms: _289  and  _292
REMARK  104  A    between atoms: _292  and  _293
REMARK  105  A    between atoms: _296  and  _298
REMARK  106  A    between atoms: _298  and  _299
REMARK  107  A    between atoms: _301  and  _303
REMARK  108  A    between atoms: _303  and  _304
REMARK  109  A    between atoms: _306  and  _308
REMARK  110  A    between atoms: _308  and  _309
REMARK  111  A    between atoms: _308  and  _311
REMARK  112  A    between atoms: _311  and  _312
REMARK  113  A    between atoms: _314  and  _316
REMARK  114  A    between atoms: _316  and  _317
REMARK  115  A    between atoms: _316  and  _319
REMARK  116  A    between atoms: _319  and  _320
REMARK  117  A    between atoms: _323  and  _325
REMARK  118  A    between atoms: _325  and  _326
REMARK  119  A    between atoms: _325  and  _328
REMARK  120  A    between atoms: _328  and  _329
REMARK  121  A    between atoms: _332  and  _334
REMARK  122  A    between atoms: _334  and  _335
REMARK  123  A    between atoms: _334  and  _337
REMARK  124  A    between atoms: _337  and  _338
REMARK  125  A    between atoms: _344  and  _345
REMARK  126  A    between atoms: _351  and  _352
REMARK  127  A    between atoms: _357  and  _359
REMARK  128  A    between atoms: _359  and  _360
REMARK  129  A    between atoms: _359  and  _362
REMARK  130  A    between atoms: _362  and  _363
REMARK  131  A    between atoms: _366  and  _368
REMARK  132  A    between atoms: _368  and  _369
REMARK  133  A    between atoms: _368  and  _371
REMARK  134  A    between atoms: _371  and  _372
REMARK  135  A    between atoms: _377  and  _378
REMARK  136  A    between atoms: _380  and  _382
REMARK  137  A    between atoms: _382  and  _383
REMARK  138  A    between atoms: _382  and  _385
REMARK  139  A    between atoms: _385  and  _386
REMARK  140  A    between atoms: _388  and  _390
REMARK  141  A    between atoms: _390  and  _391
REMARK  142  A    between atoms: _390  and  _393
REMARK  143  A    between atoms: _396  and  _398
REMARK  144  A    between atoms: _398  and  _399
REMARK  145  A    between atoms: _398  and  _401
REMARK  146  A    between atoms: _401  and  _402
REMARK  147  A    between atoms: _412  and  _414
REMARK  148  A    between atoms: _414  and  _415
REMARK  149  A    between atoms: _414  and  _417
REMARK  150  A    between atoms: _417  and  _418
REMARK  151  A    between atoms: _423  and  _425
REMARK  152  A    between atoms: _425  and  _426
REMARK  153  A    between atoms: _425  and  _428
REMARK  154  A    between atoms: _428  and  _429
REMARK  155  A    between atoms: _429  and  _430
REMARK  156  A    between atoms: _430  and  _431
REMARK                            x       y       z     vdW  Elec       q    Type
REMARK                         _______ _______ _______ _____ _____    ______ ____
ROOT
ATOM      1  O   HOH     1      15.494  29.810  10.175  0.00  0.00    +0.000 OA
ENDROOT
TORSDOF 0
REMARK  Name = ../refined-set-2016/4wup/4wup_pocket.pdb
REMARK  156 active torsions:
REMARK  status: ('A' for Active; 'I' for Inactive)
REMARK    1  A    between atoms: _1  and  _5
REMARK    2  A    between atoms: _5  and  _6
REMARK    3  A    between atoms: _5  and  _8
REMARK    4  A    between atoms: _8  and  _9
REMARK    5  A    between atoms: _19  and  _21
REMARK    6  A    between atoms: _21  and  _22
REMARK    7  A    between atoms: _21  and  _24
REMARK    8  A    between atoms: _24  and  _25
REMARK    9  A    between atoms: _30  and  _31
REMARK   10  A    between atoms: _33  and  _35
REMARK   11  A    between atoms: _35  and  _36
REMARK   12  A    between atoms: _35  and  _38
REMARK   13  A    between atoms: _38  and  _39
REMARK   14  A    between atoms: _42  and  _43
REMARK   15  A    between atoms: _48  and  _50
REMARK   16  A    between atoms: _50  and  _51
REMARK   17  A    between atoms: _50  and  _53
REMARK   18  A    between atoms: _53  and  _54
REMARK   19  A    between atoms: _59  and  _61
REMARK   20  A    between atoms: _61  and  _62
REMARK   21  A    between atoms: _61  and  _64
REMARK   22  A    between atoms: _64  and  _65
REMARK   23  A    between atoms: _67  and  _69
REMARK   24  A    between atoms: _69  and  _70
REMARK   25  A    between atoms: _69  and  _72
REMARK   26  A    between atoms: _72  and  _73
REMARK   27  A    between atoms: _78  and  _80
REMARK   28  A    between atoms: _80  and  _81
REMARK   29  A    between atoms: _80  and  _83
REMARK   30  A    between atoms: _83  and  _84
REMARK   31  A    between atoms: _89  and  _91
REMARK   32  A    between atoms: _91  and  _92
REMARK   33  A    between atoms: _91  and  _94
REMARK   34  A    between atoms: _94  and  _95
REMARK   35  A    between atoms: _101  and  _103
REMARK   36  A    between atoms: _103  and  _104
REMARK   37  A    between atoms: _103  and  _106
REMARK   38  A    between atoms: _106  and  _107
REMARK   39  A    between atoms: _107  and  _108
REMARK   40  A    between atoms: _113  and  _115
REMARK   41  A    between atoms: _115  and  _116
REMARK   42  A    between atoms: _115  and  _118
REMARK   43  A    between atoms: _118  and  _119
REMARK   44  A    between atoms: _125  and  _127
REMARK   45  A    between atoms: _138  and  _141
REMARK   46  A    between atoms: _141  and  _142
REMARK   47  A    between atoms: _150  and  _151
REMARK   48  A    between atoms: _159  and  _161
REMARK   49  A    between atoms: _161  and  _162
REMARK   50  A    between atoms: _161  and  _164
REMARK   51  A    between atoms: _164  and  _165
REMARK   52  A    between atoms: _165  and  _166
REMARK   53  A    between atoms: _169  and  _171
REMARK   54  A    between atoms: _171  and  _172
REMARK   55  A    between atoms: _171  and  _174
REMARK   56  A    between atoms: _174  and  _175
REMARK   57  A    between atoms: _180  and  _182
REMARK   58  A    between atoms: _182  and  _183
REMARK   59  A    between atoms: _182  and  _185
REMARK   60  A    between atoms: _185  and  _186
REMARK   61  A    between atoms: _186  and  _187
REMARK   62  A    between atoms: _190  and  _192
REMARK   63  A    between atoms: _192  and  _193
REMARK   64  A    between atoms: _192  and  _195
REMARK   65  A    between atoms: _195  and  _196
REMARK   66  A    between atoms: _199  and  _201
REMARK   67  A    between atoms: _201  and  _202
REMARK   68  A    between atoms: _201  and  _204
REMARK   69  A    between atoms: _204  and  _205
REMARK   70  A    between atoms: _206  and  ZN_440
REMARK   71  A    between atoms: _210  and  _212
REMARK   72  A    between atoms: _212  and  _213
REMARK   73  A    between atoms: _212  and  _215
REMARK   74  A    between atoms: _218  and  _220
REMARK   75  A    between atoms: _220  and  _221
REMARK   76  A    between atoms: _224  and  _226
REMARK   77  A    between atoms: _226  and  _227
REMARK   78  A    between atoms: _226  and  _229
REMARK   79  A    between atoms: _229  and  _230
REMARK   80  A    between atoms: _235  and  _237
REMARK   81  A    between atoms: _237  and  _238
REMARK   82  A    between atoms: _237  and  _240
REMARK   83  A    between atoms: _240  and  _241
REMARK   84  A    between atoms: _244  and  _246
REMARK   85  A    between atoms: _246  and  _247
REMARK   86  A    between atoms: _250  and  _252
REMARK   87  A    between atoms: _252  and  _253
REMARK   88  A    between atoms: _256  and  _258
REMARK   89  A    between atoms: _258  and  _259
REMARK   90  A    between atoms: _258  and  _261
REMARK   91  A    between atoms: _261  and  _262
REMARK   92  A    between atoms: _264  and  _266
REMARK   93  A    between atoms: _266  and  _267
REMARK   94  A    between atoms: _266  and  _269
REMARK   95  A    between atoms: _269  and  _270
REMARK   96  A    between atoms: _273  and  _275
REMARK   97  A    between atoms: _275  and  _276
REMARK   98  A    between atoms: _279  and  _281
REMARK   99  A    between atoms: _281  and  _282
REMARK  100  A    between atoms: _281  and  _284
REMARK  101  A    between atoms: _287  and  _289
REMARK  102  A    between atoms: _289  and  _290
REMARK  103  A    between atoms: _289  and  _292
REMARK  104  A    between atoms: _292  and  _293
REMARK  105  A    between atoms: _296  and  _298
REMARK  106  A    between atoms: _298  and  _299
REMARK  107  A    between atoms: _301  and  _303
REMARK  108  A    between atoms: _303  and  _304
REMARK  109  A    between atoms: _306  and  _308
REMARK  110  A    between atoms: _308  and  _309
REMARK  111  A    between atoms: _308  and  _311
REMARK  112  A    between atoms: _311  and  _312
REMARK  113  A    between atoms: _314  and  _316
REMARK  114  A    between atoms: _316  and  _317
REMARK  115  A    between atoms: _316  and  _319
REMARK  116  A    between atoms: _319  and  _320
REMARK  117  A    between atoms: _323  and  _325
REMARK  118  A    between atoms: _325  and  _326
REMARK  119  A    between atoms: _325  and  _328
REMARK  120  A    between atoms: _328  and  _329
REMARK  121  A    between atoms: _332  and  _334
REMARK  122  A    between atoms: _334  and  _335
REMARK  123  A    between atoms: _334  and  _337
REMARK  124  A    between atoms: _337  and  _338
REMARK  125  A    between atoms: _344  and  _345
REMARK  126  A    between atoms: _351  and  _352
REMARK  127  A    between atoms: _357  and  _359
REMARK  128  A    between atoms: _359  and  _360
REMARK  129  A    between atoms: _359  and  _362
REMARK  130  A    between atoms: _362  and  _363
REMARK  131  A    between atoms: _366  and  _368
REMARK  132  A    between atoms: _368  and  _369
REMARK  133  A    between atoms: _368  and  _371
REMARK  134  A    between atoms: _371  and  _372
REMARK  135  A    between atoms: _377  and  _378
REMARK  136  A    between atoms: _380  and  _382
REMARK  137  A    between atoms: _382  and  _383
REMARK  138  A    between atoms: _382  and  _385
REMARK  139  A    between atoms: _385  and  _386
REMARK  140  A    between atoms: _388  and  _390
REMARK  141  A    between atoms: _390  and  _391
REMARK  142  A    between atoms: _390  and  _393
REMARK  143  A    between atoms: _396  and  _398
REMARK  144  A    between atoms: _398  and  _399
REMARK  145  A    between atoms: _398  and  _401
REMARK  146  A    between atoms: _401  and  _402
REMARK  147  A    between atoms: _412  and  _414
REMARK  148  A    between atoms: _414  and  _415
REMARK  149  A    between atoms: _414  and  _417
REMARK  150  A    between atoms: _417  and  _418
REMARK  151  A    between atoms: _423  and  _425
REMARK  152  A    between atoms: _425  and  _426
REMARK  153  A    between atoms: _425  and  _428
REMARK  154  A    between atoms: _428  and  _429
REMARK  155  A    between atoms: _429  and  _430
REMARK  156  A    between atoms: _430  and  _431
REMARK                            x       y       z     vdW  Elec       q    Type
REMARK                         _______ _______ _______ _____ _____    ______ ____
ROOT
ATOM      1  O   HOH     1      12.655  39.682   9.459  0.00  0.00    +0.000 OA
ENDROOT
TORSDOF 0
REMARK  Name = ../refined-set-2016/4wup/4wup_pocket.pdb
REMARK  156 active torsions:
REMARK  status: ('A' for Active; 'I' for Inactive)
REMARK    1  A    between atoms: _1  and  _5
REMARK    2  A    between atoms: _5  and  _6
REMARK    3  A    between atoms: _5  and  _8
REMARK    4  A    between atoms: _8  and  _9
REMARK    5  A    between atoms: _19  and  _21
REMARK    6  A    between atoms: _21  and  _22
REMARK    7  A    between atoms: _21  and  _24
REMARK    8  A    between atoms: _24  and  _25
REMARK    9  A    between atoms: _30  and  _31
REMARK   10  A    between atoms: _33  and  _35
REMARK   11  A    between atoms: _35  and  _36
REMARK   12  A    between atoms: _35  and  _38
REMARK   13  A    between atoms: _38  and  _39
REMARK   14  A    between atoms: _42  and  _43
REMARK   15  A    between atoms: _48  and  _50
REMARK   16  A    between atoms: _50  and  _51
REMARK   17  A    between atoms: _50  and  _53
REMARK   18  A    between atoms: _53  and  _54
REMARK   19  A    between atoms: _59  and  _61
REMARK   20  A    between atoms: _61  and  _62
REMARK   21  A    between atoms: _61  and  _64
REMARK   22  A    between atoms: _64  and  _65
REMARK   23  A    between atoms: _67  and  _69
REMARK   24  A    between atoms: _69  and  _70
REMARK   25  A    between atoms: _69  and  _72
REMARK   26  A    between atoms: _72  and  _73
REMARK   27  A    between atoms: _78  and  _80
REMARK   28  A    between atoms: _80  and  _81
REMARK   29  A    between atoms: _80  and  _83
REMARK   30  A    between atoms: _83  and  _84
REMARK   31  A    between atoms: _89  and  _91
REMARK   32  A    between atoms: _91  and  _92
REMARK   33  A    between atoms: _91  and  _94
REMARK   34  A    between atoms: _94  and  _95
REMARK   35  A    between atoms: _101  and  _103
REMARK   36  A    between atoms: _103  and  _104
REMARK   37  A    between atoms: _103  and  _106
REMARK   38  A    between atoms: _106  and  _107
REMARK   39  A    between atoms: _107  and  _108
REMARK   40  A    between atoms: _113  and  _115
REMARK   41  A    between atoms: _115  and  _116
REMARK   42  A    between atoms: _115  and  _118
REMARK   43  A    between atoms: _118  and  _119
REMARK   44  A    between atoms: _125  and  _127
REMARK   45  A    between atoms: _138  and  _141
REMARK   46  A    between atoms: _141  and  _142
REMARK   47  A    between atoms: _150  and  _151
REMARK   48  A    between atoms: _159  and  _161
REMARK   49  A    between atoms: _161  and  _162
REMARK   50  A    between atoms: _161  and  _164
REMARK   51  A    between atoms: _164  and  _165
REMARK   52  A    between atoms: _165  and  _166
REMARK   53  A    between atoms: _169  and  _171
REMARK   54  A    between atoms: _171  and  _172
REMARK   55  A    between atoms: _171  and  _174
REMARK   56  A    between atoms: _174  and  _175
REMARK   57  A    between atoms: _180  and  _182
REMARK   58  A    between atoms: _182  and  _183
REMARK   59  A    between atoms: _182  and  _185
REMARK   60  A    between atoms: _185  and  _186
REMARK   61  A    between atoms: _186  and  _187
REMARK   62  A    between atoms: _190  and  _192
REMARK   63  A    between atoms: _192  and  _193
REMARK   64  A    between atoms: _192  and  _195
REMARK   65  A    between atoms: _195  and  _196
REMARK   66  A    between atoms: _199  and  _201
REMARK   67  A    between atoms: _201  and  _202
REMARK   68  A    between atoms: _201  and  _204
REMARK   69  A    between atoms: _204  and  _205
REMARK   70  A    between atoms: _206  and  ZN_440
REMARK   71  A    between atoms: _210  and  _212
REMARK   72  A    between atoms: _212  and  _213
REMARK   73  A    between atoms: _212  and  _215
REMARK   74  A    between atoms: _218  and  _220
REMARK   75  A    between atoms: _220  and  _221
REMARK   76  A    between atoms: _224  and  _226
REMARK   77  A    between atoms: _226  and  _227
REMARK   78  A    between atoms: _226  and  _229
REMARK   79  A    between atoms: _229  and  _230
REMARK   80  A    between atoms: _235  and  _237
REMARK   81  A    between atoms: _237  and  _238
REMARK   82  A    between atoms: _237  and  _240
REMARK   83  A    between atoms: _240  and  _241
REMARK   84  A    between atoms: _244  and  _246
REMARK   85  A    between atoms: _246  and  _247
REMARK   86  A    between atoms: _250  and  _252
REMARK   87  A    between atoms: _252  and  _253
REMARK   88  A    between atoms: _256  and  _258
REMARK   89  A    between atoms: _258  and  _259
REMARK   90  A    between atoms: _258  and  _261
REMARK   91  A    between atoms: _261  and  _262
REMARK   92  A    between atoms: _264  and  _266
REMARK   93  A    between atoms: _266  and  _267
REMARK   94  A    between atoms: _266  and  _269
REMARK   95  A    between atoms: _269  and  _270
REMARK   96  A    between atoms: _273  and  _275
REMARK   97  A    between atoms: _275  and  _276
REMARK   98  A    between atoms: _279  and  _281
REMARK   99  A    between atoms: _281  and  _282
REMARK  100  A    between atoms: _281  and  _284
REMARK  101  A    between atoms: _287  and  _289
REMARK  102  A    between atoms: _289  and  _290
REMARK  103  A    between atoms: _289  and  _292
REMARK  104  A    between atoms: _292  and  _293
REMARK  105  A    between atoms: _296  and  _298
REMARK  106  A    between atoms: _298  and  _299
REMARK  107  A    between atoms: _301  and  _303
REMARK  108  A    between atoms: _303  and  _304
REMARK  109  A    between atoms: _306  and  _308
REMARK  110  A    between atoms: _308  and  _309
REMARK  111  A    between atoms: _308  and  _311
REMARK  112  A    between atoms: _311  and  _312
REMARK  113  A    between atoms: _314  and  _316
REMARK  114  A    between atoms: _316  and  _317
REMARK  115  A    between atoms: _316  and  _319
REMARK  116  A    between atoms: _319  and  _320
REMARK  117  A    between atoms: _323  and  _325
REMARK  118  A    between atoms: _325  and  _326
REMARK  119  A    between atoms: _325  and  _328
REMARK  120  A    between atoms: _328  and  _329
REMARK  121  A    between atoms: _332  and  _334
REMARK  122  A    between atoms: _334  and  _335
REMARK  123  A    between atoms: _334  and  _337
REMARK  124  A    between atoms: _337  and  _338
REMARK  125  A    between atoms: _344  and  _345
REMARK  126  A    between atoms: _351  and  _352
REMARK  127  A    between atoms: _357  and  _359
REMARK  128  A    between atoms: _359  and  _360
REMARK  129  A    between atoms: _359  and  _362
REMARK  130  A    between atoms: _362  and  _363
REMARK  131  A    between atoms: _366  and  _368
REMARK  132  A    between atoms: _368  and  _369
REMARK  133  A    between atoms: _368  and  _371
REMARK  134  A    between atoms: _371  and  _372
REMARK  135  A    between atoms: _377  and  _378
REMARK  136  A    between atoms: _380  and  _382
REMARK  137  A    between atoms: _382  and  _383
REMARK  138  A    between atoms: _382  and  _385
REMARK  139  A    between atoms: _385  and  _386
REMARK  140  A    between atoms: _388  and  _390
REMARK  141  A    between atoms: _390  and  _391
REMARK  142  A    between atoms: _390  and  _393
REMARK  143  A    between atoms: _396  and  _398
REMARK  144  A    between atoms: _398  and  _399
REMARK  145  A    between atoms: _398  and  _401
REMARK  146  A    between atoms: _401  and  _402
REMARK  147  A    between atoms: _412  and  _414
REMARK  148  A    between atoms: _414  and  _415
REMARK  149  A    between atoms: _414  and  _417
REMARK  150  A    between atoms: _417  and  _418
REMARK  151  A    between atoms: _423  and  _425
REMARK  152  A    between atoms: _425  and  _426
REMARK  153  A    between atoms: _425  and  _428
REMARK  154  A    between atoms: _428  and  _429
REMARK  155  A    between atoms: _429  and  _430
REMARK  156  A    between atoms: _430  and  _431
REMARK                            x       y       z     vdW  Elec       q    Type
REMARK                         _______ _______ _______ _____ _____    ______ ____
ROOT
ATOM      1  O   HOH     1      18.839  41.888  18.839  0.00  0.00    +0.000 OA
ENDROOT
TORSDOF 0
REMARK  Name = ../refined-set-2016/4wup/4wup_pocket.pdb
REMARK  156 active torsions:
REMARK  status: ('A' for Active; 'I' for Inactive)
REMARK    1  A    between atoms: _1  and  _5
REMARK    2  A    between atoms: _5  and  _6
REMARK    3  A    between atoms: _5  and  _8
REMARK    4  A    between atoms: _8  and  _9
REMARK    5  A    between atoms: _19  and  _21
REMARK    6  A    between atoms: _21  and  _22
REMARK    7  A    between atoms: _21  and  _24
REMARK    8  A    between atoms: _24  and  _25
REMARK    9  A    between atoms: _30  and  _31
REMARK   10  A    between atoms: _33  and  _35
REMARK   11  A    between atoms: _35  and  _36
REMARK   12  A    between atoms: _35  and  _38
REMARK   13  A    between atoms: _38  and  _39
REMARK   14  A    between atoms: _42  and  _43
REMARK   15  A    between atoms: _48  and  _50
REMARK   16  A    between atoms: _50  and  _51
REMARK   17  A    between atoms: _50  and  _53
REMARK   18  A    between atoms: _53  and  _54
REMARK   19  A    between atoms: _59  and  _61
REMARK   20  A    between atoms: _61  and  _62
REMARK   21  A    between atoms: _61  and  _64
REMARK   22  A    between atoms: _64  and  _65
REMARK   23  A    between atoms: _67  and  _69
REMARK   24  A    between atoms: _69  and  _70
REMARK   25  A    between atoms: _69  and  _72
REMARK   26  A    between atoms: _72  and  _73
REMARK   27  A    between atoms: _78  and  _80
REMARK   28  A    between atoms: _80  and  _81
REMARK   29  A    between atoms: _80  and  _83
REMARK   30  A    between atoms: _83  and  _84
REMARK   31  A    between atoms: _89  and  _91
REMARK   32  A    between atoms: _91  and  _92
REMARK   33  A    between atoms: _91  and  _94
REMARK   34  A    between atoms: _94  and  _95
REMARK   35  A    between atoms: _101  and  _103
REMARK   36  A    between atoms: _103  and  _104
REMARK   37  A    between atoms: _103  and  _106
REMARK   38  A    between atoms: _106  and  _107
REMARK   39  A    between atoms: _107  and  _108
REMARK   40  A    between atoms: _113  and  _115
REMARK   41  A    between atoms: _115  and  _116
REMARK   42  A    between atoms: _115  and  _118
REMARK   43  A    between atoms: _118  and  _119
REMARK   44  A    between atoms: _125  and  _127
REMARK   45  A    between atoms: _138  and  _141
REMARK   46  A    between atoms: _141  and  _142
REMARK   47  A    between atoms: _150  and  _151
REMARK   48  A    between atoms: _159  and  _161
REMARK   49  A    between atoms: _161  and  _162
REMARK   50  A    between atoms: _161  and  _164
REMARK   51  A    between atoms: _164  and  _165
REMARK   52  A    between atoms: _165  and  _166
REMARK   53  A    between atoms: _169  and  _171
REMARK   54  A    between atoms: _171  and  _172
REMARK   55  A    between atoms: _171  and  _174
REMARK   56  A    between atoms: _174  and  _175
REMARK   57  A    between atoms: _180  and  _182
REMARK   58  A    between atoms: _182  and  _183
REMARK   59  A    between atoms: _182  and  _185
REMARK   60  A    between atoms: _185  and  _186
REMARK   61  A    between atoms: _186  and  _187
REMARK   62  A    between atoms: _190  and  _192
REMARK   63  A    between atoms: _192  and  _193
REMARK   64  A    between atoms: _192  and  _195
REMARK   65  A    between atoms: _195  and  _196
REMARK   66  A    between atoms: _199  and  _201
REMARK   67  A    between atoms: _201  and  _202
REMARK   68  A    between atoms: _201  and  _204
REMARK   69  A    between atoms: _204  and  _205
REMARK   70  A    between atoms: _206  and  ZN_440
REMARK   71  A    between atoms: _210  and  _212
REMARK   72  A    between atoms: _212  and  _213
REMARK   73  A    between atoms: _212  and  _215
REMARK   74  A    between atoms: _218  and  _220
REMARK   75  A    between atoms: _220  and  _221
REMARK   76  A    between atoms: _224  and  _226
REMARK   77  A    between atoms: _226  and  _227
REMARK   78  A    between atoms: _226  and  _229
REMARK   79  A    between atoms: _229  and  _230
REMARK   80  A    between atoms: _235  and  _237
REMARK   81  A    between atoms: _237  and  _238
REMARK   82  A    between atoms: _237  and  _240
REMARK   83  A    between atoms: _240  and  _241
REMARK   84  A    between atoms: _244  and  _246
REMARK   85  A    between atoms: _246  and  _247
REMARK   86  A    between atoms: _250  and  _252
REMARK   87  A    between atoms: _252  and  _253
REMARK   88  A    between atoms: _256  and  _258
REMARK   89  A    between atoms: _258  and  _259
REMARK   90  A    between atoms: _258  and  _261
REMARK   91  A    between atoms: _261  and  _262
REMARK   92  A    between atoms: _264  and  _266
REMARK   93  A    between atoms: _266  and  _267
REMARK   94  A    between atoms: _266  and  _269
REMARK   95  A    between atoms: _269  and  _270
REMARK   96  A    between atoms: _273  and  _275
REMARK   97  A    between atoms: _275  and  _276
REMARK   98  A    between atoms: _279  and  _281
REMARK   99  A    between atoms: _281  and  _282
REMARK  100  A    between atoms: _281  and  _284
REMARK  101  A    between atoms: _287  and  _289
REMARK  102  A    between atoms: _289  and  _290
REMARK  103  A    between atoms: _289  and  _292
REMARK  104  A    between atoms: _292  and  _293
REMARK  105  A    between atoms: _296  and  _298
REMARK  106  A    between atoms: _298  and  _299
REMARK  107  A    between atoms: _301  and  _303
REMARK  108  A    between atoms: _303  and  _304
REMARK  109  A    between atoms: _306  and  _308
REMARK  110  A    between atoms: _308  and  _309
REMARK  111  A    between atoms: _308  and  _311
REMARK  112  A    between atoms: _311  and  _312
REMARK  113  A    between atoms: _314  and  _316
REMARK  114  A    between atoms: _316  and  _317
REMARK  115  A    between atoms: _316  and  _319
REMARK  116  A    between atoms: _319  and  _320
REMARK  117  A    between atoms: _323  and  _325
REMARK  118  A    between atoms: _325  and  _326
REMARK  119  A    between atoms: _325  and  _328
REMARK  120  A    between atoms: _328  and  _329
REMARK  121  A    between atoms: _332  and  _334
REMARK  122  A    between atoms: _334  and  _335
REMARK  123  A    between atoms: _334  and  _337
REMARK  124  A    between atoms: _337  and  _338
REMARK  125  A    between atoms: _344  and  _345
REMARK  126  A    between atoms: _351  and  _352
REMARK  127  A    between atoms: _357  and  _359
REMARK  128  A    between atoms: _359  and  _360
REMARK  129  A    between atoms: _359  and  _362
REMARK  130  A    between atoms: _362  and  _363
REMARK  131  A    between atoms: _366  and  _368
REMARK  132  A    between atoms: _368  and  _369
REMARK  133  A    between atoms: _368  and  _371
REMARK  134  A    between atoms: _371  and  _372
REMARK  135  A    between atoms: _377  and  _378
REMARK  136  A    between atoms: _380  and  _382
REMARK  137  A    between atoms: _382  and  _383
REMARK  138  A    between atoms: _382  and  _385
REMARK  139  A    between atoms: _385  and  _386
REMARK  140  A    between atoms: _388  and  _390
REMARK  141  A    between atoms: _390  and  _391
REMARK  142  A    between atoms: _390  and  _393
REMARK  143  A    between atoms: _396  and  _398
REMARK  144  A    between atoms: _398  and  _399
REMARK  145  A    between atoms: _398  and  _401
REMARK  146  A    between atoms: _401  and  _402
REMARK  147  A    between atoms: _412  and  _414
REMARK  148  A    between atoms: _414  and  _415
REMARK  149  A    between atoms: _414  and  _417
REMARK  150  A    between atoms: _417  and  _418
REMARK  151  A    between atoms: _423  and  _425
REMARK  152  A    between atoms: _425  and  _426
REMARK  153  A    between atoms: _425  and  _428
REMARK  154  A    between atoms: _428  and  _429
REMARK  155  A    between atoms: _429  and  _430
REMARK  156  A    between atoms: _430  and  _431
REMARK                            x       y       z     vdW  Elec       q    Type
REMARK                         _______ _______ _______ _____ _____    ______ ____
ROOT
ATOM      1  O   HOH     1      20.533  38.728  15.975  0.00  0.00    +0.000 OA
ENDROOT
TORSDOF 0
REMARK  Name = ../refined-set-2016/4wup/4wup_pocket.pdb
REMARK  156 active torsions:
REMARK  status: ('A' for Active; 'I' for Inactive)
REMARK    1  A    between atoms: _1  and  _5
REMARK    2  A    between atoms: _5  and  _6
REMARK    3  A    between atoms: _5  and  _8
REMARK    4  A    between atoms: _8  and  _9
REMARK    5  A    between atoms: _19  and  _21
REMARK    6  A    between atoms: _21  and  _22
REMARK    7  A    between atoms: _21  and  _24
REMARK    8  A    between atoms: _24  and  _25
REMARK    9  A    between atoms: _30  and  _31
REMARK   10  A    between atoms: _33  and  _35
REMARK   11  A    between atoms: _35  and  _36
REMARK   12  A    between atoms: _35  and  _38
REMARK   13  A    between atoms: _38  and  _39
REMARK   14  A    between atoms: _42  and  _43
REMARK   15  A    between atoms: _48  and  _50
REMARK   16  A    between atoms: _50  and  _51
REMARK   17  A    between atoms: _50  and  _53
REMARK   18  A    between atoms: _53  and  _54
REMARK   19  A    between atoms: _59  and  _61
REMARK   20  A    between atoms: _61  and  _62
REMARK   21  A    between atoms: _61  and  _64
REMARK   22  A    between atoms: _64  and  _65
REMARK   23  A    between atoms: _67  and  _69
REMARK   24  A    between atoms: _69  and  _70
REMARK   25  A    between atoms: _69  and  _72
REMARK   26  A    between atoms: _72  and  _73
REMARK   27  A    between atoms: _78  and  _80
REMARK   28  A    between atoms: _80  and  _81
REMARK   29  A    between atoms: _80  and  _83
REMARK   30  A    between atoms: _83  and  _84
REMARK   31  A    between atoms: _89  and  _91
REMARK   32  A    between atoms: _91  and  _92
REMARK   33  A    between atoms: _91  and  _94
REMARK   34  A    between atoms: _94  and  _95
REMARK   35  A    between atoms: _101  and  _103
REMARK   36  A    between atoms: _103  and  _104
REMARK   37  A    between atoms: _103  and  _106
REMARK   38  A    between atoms: _106  and  _107
REMARK   39  A    between atoms: _107  and  _108
REMARK   40  A    between atoms: _113  and  _115
REMARK   41  A    between atoms: _115  and  _116
REMARK   42  A    between atoms: _115  and  _118
REMARK   43  A    between atoms: _118  and  _119
REMARK   44  A    between atoms: _125  and  _127
REMARK   45  A    between atoms: _138  and  _141
REMARK   46  A    between atoms: _141  and  _142
REMARK   47  A    between atoms: _150  and  _151
REMARK   48  A    between atoms: _159  and  _161
REMARK   49  A    between atoms: _161  and  _162
REMARK   50  A    between atoms: _161  and  _164
REMARK   51  A    between atoms: _164  and  _165
REMARK   52  A    between atoms: _165  and  _166
REMARK   53  A    between atoms: _169  and  _171
REMARK   54  A    between atoms: _171  and  _172
REMARK   55  A    between atoms: _171  and  _174
REMARK   56  A    between atoms: _174  and  _175
REMARK   57  A    between atoms: _180  and  _182
REMARK   58  A    between atoms: _182  and  _183
REMARK   59  A    between atoms: _182  and  _185
REMARK   60  A    between atoms: _185  and  _186
REMARK   61  A    between atoms: _186  and  _187
REMARK   62  A    between atoms: _190  and  _192
REMARK   63  A    between atoms: _192  and  _193
REMARK   64  A    between atoms: _192  and  _195
REMARK   65  A    between atoms: _195  and  _196
REMARK   66  A    between atoms: _199  and  _201
REMARK   67  A    between atoms: _201  and  _202
REMARK   68  A    between atoms: _201  and  _204
REMARK   69  A    between atoms: _204  and  _205
REMARK   70  A    between atoms: _206  and  ZN_440
REMARK   71  A    between atoms: _210  and  _212
REMARK   72  A    between atoms: _212  and  _213
REMARK   73  A    between atoms: _212  and  _215
REMARK   74  A    between atoms: _218  and  _220
REMARK   75  A    between atoms: _220  and  _221
REMARK   76  A    between atoms: _224  and  _226
REMARK   77  A    between atoms: _226  and  _227
REMARK   78  A    between atoms: _226  and  _229
REMARK   79  A    between atoms: _229  and  _230
REMARK   80  A    between atoms: _235  and  _237
REMARK   81  A    between atoms: _237  and  _238
REMARK   82  A    between atoms: _237  and  _240
REMARK   83  A    between atoms: _240  and  _241
REMARK   84  A    between atoms: _244  and  _246
REMARK   85  A    between atoms: _246  and  _247
REMARK   86  A    between atoms: _250  and  _252
REMARK   87  A    between atoms: _252  and  _253
REMARK   88  A    between atoms: _256  and  _258
REMARK   89  A    between atoms: _258  and  _259
REMARK   90  A    between atoms: _258  and  _261
REMARK   91  A    between atoms: _261  and  _262
REMARK   92  A    between atoms: _264  and  _266
REMARK   93  A    between atoms: _266  and  _267
REMARK   94  A    between atoms: _266  and  _269
REMARK   95  A    between atoms: _269  and  _270
REMARK   96  A    between atoms: _273  and  _275
REMARK   97  A    between atoms: _275  and  _276
REMARK   98  A    between atoms: _279  and  _281
REMARK   99  A    between atoms: _281  and  _282
REMARK  100  A    between atoms: _281  and  _284
REMARK  101  A    between atoms: _287  and  _289
REMARK  102  A    between atoms: _289  and  _290
REMARK  103  A    between atoms: _289  and  _292
REMARK  104  A    between atoms: _292  and  _293
REMARK  105  A    between atoms: _296  and  _298
REMARK  106  A    between atoms: _298  and  _299
REMARK  107  A    between atoms: _301  and  _303
REMARK  108  A    between atoms: _303  and  _304
REMARK  109  A    between atoms: _306  and  _308
REMARK  110  A    between atoms: _308  and  _309
REMARK  111  A    between atoms: _308  and  _311
REMARK  112  A    between atoms: _311  and  _312
REMARK  113  A    between atoms: _314  and  _316
REMARK  114  A    between atoms: _316  and  _317
REMARK  115  A    between atoms: _316  and  _319
REMARK  116  A    between atoms: _319  and  _320
REMARK  117  A    between atoms: _323  and  _325
REMARK  118  A    between atoms: _325  and  _326
REMARK  119  A    between atoms: _325  and  _328
REMARK  120  A    between atoms: _328  and  _329
REMARK  121  A    between atoms: _332  and  _334
REMARK  122  A    between atoms: _334  and  _335
REMARK  123  A    between atoms: _334  and  _337
REMARK  124  A    between atoms: _337  and  _338
REMARK  125  A    between atoms: _344  and  _345
REMARK  126  A    between atoms: _351  and  _352
REMARK  127  A    between atoms: _357  and  _359
REMARK  128  A    between atoms: _359  and  _360
REMARK  129  A    between atoms: _359  and  _362
REMARK  130  A    between atoms: _362  and  _363
REMARK  131  A    between atoms: _366  and  _368
REMARK  132  A    between atoms: _368  and  _369
REMARK  133  A    between atoms: _368  and  _371
REMARK  134  A    between atoms: _371  and  _372
REMARK  135  A    between atoms: _377  and  _378
REMARK  136  A    between atoms: _380  and  _382
REMARK  137  A    between atoms: _382  and  _383
REMARK  138  A    between atoms: _382  and  _385
REMARK  139  A    between atoms: _385  and  _386
REMARK  140  A    between atoms: _388  and  _390
REMARK  141  A    between atoms: _390  and  _391
REMARK  142  A    between atoms: _390  and  _393
REMARK  143  A    between atoms: _396  and  _398
REMARK  144  A    between atoms: _398  and  _399
REMARK  145  A    between atoms: _398  and  _401
REMARK  146  A    between atoms: _401  and  _402
REMARK  147  A    between atoms: _412  and  _414
REMARK  148  A    between atoms: _414  and  _415
REMARK  149  A    between atoms: _414  and  _417
REMARK  150  A    between atoms: _417  and  _418
REMARK  151  A    between atoms: _423  and  _425
REMARK  152  A    between atoms: _425  and  _426
REMARK  153  A    between atoms: _425  and  _428
REMARK  154  A    between atoms: _428  and  _429
REMARK  155  A    between atoms: _429  and  _430
REMARK  156  A    between atoms: _430  and  _431
REMARK                            x       y       z     vdW  Elec       q    Type
REMARK                         _______ _______ _______ _____ _____    ______ ____
ROOT
ATOM      1  O   HOH     1      21.270  36.528  17.256  0.00  0.00    +0.000 OA
ENDROOT
TORSDOF 0
REMARK  Name = ../refined-set-2016/4wup/4wup_pocket.pdb
REMARK  156 active torsions:
REMARK  status: ('A' for Active; 'I' for Inactive)
REMARK    1  A    between atoms: _1  and  _5
REMARK    2  A    between atoms: _5  and  _6
REMARK    3  A    between atoms: _5  and  _8
REMARK    4  A    between atoms: _8  and  _9
REMARK    5  A    between atoms: _19  and  _21
REMARK    6  A    between atoms: _21  and  _22
REMARK    7  A    between atoms: _21  and  _24
REMARK    8  A    between atoms: _24  and  _25
REMARK    9  A    between atoms: _30  and  _31
REMARK   10  A    between atoms: _33  and  _35
REMARK   11  A    between atoms: _35  and  _36
REMARK   12  A    between atoms: _35  and  _38
REMARK   13  A    between atoms: _38  and  _39
REMARK   14  A    between atoms: _42  and  _43
REMARK   15  A    between atoms: _48  and  _50
REMARK   16  A    between atoms: _50  and  _51
REMARK   17  A    between atoms: _50  and  _53
REMARK   18  A    between atoms: _53  and  _54
REMARK   19  A    between atoms: _59  and  _61
REMARK   20  A    between atoms: _61  and  _62
REMARK   21  A    between atoms: _61  and  _64
REMARK   22  A    between atoms: _64  and  _65
REMARK   23  A    between atoms: _67  and  _69
REMARK   24  A    between atoms: _69  and  _70
REMARK   25  A    between atoms: _69  and  _72
REMARK   26  A    between atoms: _72  and  _73
REMARK   27  A    between atoms: _78  and  _80
REMARK   28  A    between atoms: _80  and  _81
REMARK   29  A    between atoms: _80  and  _83
REMARK   30  A    between atoms: _83  and  _84
REMARK   31  A    between atoms: _89  and  _91
REMARK   32  A    between atoms: _91  and  _92
REMARK   33  A    between atoms: _91  and  _94
REMARK   34  A    between atoms: _94  and  _95
REMARK   35  A    between atoms: _101  and  _103
REMARK   36  A    between atoms: _103  and  _104
REMARK   37  A    between atoms: _103  and  _106
REMARK   38  A    between atoms: _106  and  _107
REMARK   39  A    between atoms: _107  and  _108
REMARK   40  A    between atoms: _113  and  _115
REMARK   41  A    between atoms: _115  and  _116
REMARK   42  A    between atoms: _115  and  _118
REMARK   43  A    between atoms: _118  and  _119
REMARK   44  A    between atoms: _125  and  _127
REMARK   45  A    between atoms: _138  and  _141
REMARK   46  A    between atoms: _141  and  _142
REMARK   47  A    between atoms: _150  and  _151
REMARK   48  A    between atoms: _159  and  _161
REMARK   49  A    between atoms: _161  and  _162
REMARK   50  A    between atoms: _161  and  _164
REMARK   51  A    between atoms: _164  and  _165
REMARK   52  A    between atoms: _165  and  _166
REMARK   53  A    between atoms: _169  and  _171
REMARK   54  A    between atoms: _171  and  _172
REMARK   55  A    between atoms: _171  and  _174
REMARK   56  A    between atoms: _174  and  _175
REMARK   57  A    between atoms: _180  and  _182
REMARK   58  A    between atoms: _182  and  _183
REMARK   59  A    between atoms: _182  and  _185
REMARK   60  A    between atoms: _185  and  _186
REMARK   61  A    between atoms: _186  and  _187
REMARK   62  A    between atoms: _190  and  _192
REMARK   63  A    between atoms: _192  and  _193
REMARK   64  A    between atoms: _192  and  _195
REMARK   65  A    between atoms: _195  and  _196
REMARK   66  A    between atoms: _199  and  _201
REMARK   67  A    between atoms: _201  and  _202
REMARK   68  A    between atoms: _201  and  _204
REMARK   69  A    between atoms: _204  and  _205
REMARK   70  A    between atoms: _206  and  ZN_440
REMARK   71  A    between atoms: _210  and  _212
REMARK   72  A    between atoms: _212  and  _213
REMARK   73  A    between atoms: _212  and  _215
REMARK   74  A    between atoms: _218  and  _220
REMARK   75  A    between atoms: _220  and  _221
REMARK   76  A    between atoms: _224  and  _226
REMARK   77  A    between atoms: _226  and  _227
REMARK   78  A    between atoms: _226  and  _229
REMARK   79  A    between atoms: _229  and  _230
REMARK   80  A    between atoms: _235  and  _237
REMARK   81  A    between atoms: _237  and  _238
REMARK   82  A    between atoms: _237  and  _240
REMARK   83  A    between atoms: _240  and  _241
REMARK   84  A    between atoms: _244  and  _246
REMARK   85  A    between atoms: _246  and  _247
REMARK   86  A    between atoms: _250  and  _252
REMARK   87  A    between atoms: _252  and  _253
REMARK   88  A    between atoms: _256  and  _258
REMARK   89  A    between atoms: _258  and  _259
REMARK   90  A    between atoms: _258  and  _261
REMARK   91  A    between atoms: _261  and  _262
REMARK   92  A    between atoms: _264  and  _266
REMARK   93  A    between atoms: _266  and  _267
REMARK   94  A    between atoms: _266  and  _269
REMARK   95  A    between atoms: _269  and  _270
REMARK   96  A    between atoms: _273  and  _275
REMARK   97  A    between atoms: _275  and  _276
REMARK   98  A    between atoms: _279  and  _281
REMARK   99  A    between atoms: _281  and  _282
REMARK  100  A    between atoms: _281  and  _284
REMARK  101  A    between atoms: _287  and  _289
REMARK  102  A    between atoms: _289  and  _290
REMARK  103  A    between atoms: _289  and  _292
REMARK  104  A    between atoms: _292  and  _293
REMARK  105  A    between atoms: _296  and  _298
REMARK  106  A    between atoms: _298  and  _299
REMARK  107  A    between atoms: _301  and  _303
REMARK  108  A    between atoms: _303  and  _304
REMARK  109  A    between atoms: _306  and  _308
REMARK  110  A    between atoms: _308  and  _309
REMARK  111  A    between atoms: _308  and  _311
REMARK  112  A    between atoms: _311  and  _312
REMARK  113  A    between atoms: _314  and  _316
REMARK  114  A    between atoms: _316  and  _317
REMARK  115  A    between atoms: _316  and  _319
REMARK  116  A    between atoms: _319  and  _320
REMARK  117  A    between atoms: _323  and  _325
REMARK  118  A    between atoms: _325  and  _326
REMARK  119  A    between atoms: _325  and  _328
REMARK  120  A    between atoms: _328  and  _329
REMARK  121  A    between atoms: _332  and  _334
REMARK  122  A    between atoms: _334  and  _335
REMARK  123  A    between atoms: _334  and  _337
REMARK  124  A    between atoms: _337  and  _338
REMARK  125  A    between atoms: _344  and  _345
REMARK  126  A    between atoms: _351  and  _352
REMARK  127  A    between atoms: _357  and  _359
REMARK  128  A    between atoms: _359  and  _360
REMARK  129  A    between atoms: _359  and  _362
REMARK  130  A    between atoms: _362  and  _363
REMARK  131  A    between atoms: _366  and  _368
REMARK  132  A    between atoms: _368  and  _369
REMARK  133  A    between atoms: _368  and  _371
REMARK  134  A    between atoms: _371  and  _372
REMARK  135  A    between atoms: _377  and  _378
REMARK  136  A    between atoms: _380  and  _382
REMARK  137  A    between atoms: _382  and  _383
REMARK  138  A    between atoms: _382  and  _385
REMARK  139  A    between atoms: _385  and  _386
REMARK  140  A    between atoms: _388  and  _390
REMARK  141  A    between atoms: _390  and  _391
REMARK  142  A    between atoms: _390  and  _393
REMARK  143  A    between atoms: _396  and  _398
REMARK  144  A    between atoms: _398  and  _399
REMARK  145  A    between atoms: _398  and  _401
REMARK  146  A    between atoms: _401  and  _402
REMARK  147  A    between atoms: _412  and  _414
REMARK  148  A    between atoms: _414  and  _415
REMARK  149  A    between atoms: _414  and  _417
REMARK  150  A    between atoms: _417  and  _418
REMARK  151  A    between atoms: _423  and  _425
REMARK  152  A    between atoms: _425  and  _426
REMARK  153  A    between atoms: _425  and  _428
REMARK  154  A    between atoms: _428  and  _429
REMARK  155  A    between atoms: _429  and  _430
REMARK  156  A    between atoms: _430  and  _431
REMARK                            x       y       z     vdW  Elec       q    Type
REMARK                         _______ _______ _______ _____ _____    ______ ____
ROOT
ATOM      1  O   HOH     1      18.270  35.651  16.351  0.00  0.00    +0.000 OA
ENDROOT
TORSDOF 0
