REMARK  Name = ../refined-set-2016/3uri/3uri_pocket.pdb
REMARK  252 active torsions:
REMARK  status: ('A' for Active; 'I' for Inactive)
REMARK    1  A    between atoms: _1  and  _3
REMARK    2  A    between atoms: _3  and  _4
REMARK    3  A    between atoms: _3  and  _6
REMARK    4  A    between atoms: _6  and  _7
REMARK    5  A    between atoms: _10  and  _12
REMARK    6  A    between atoms: _12  and  _13
REMARK    7  A    between atoms: _12  and  _15
REMARK    8  A    between atoms: _15  and  _16
REMARK    9  A    between atoms: _19  and  _21
REMARK   10  A    between atoms: _21  and  _22
REMARK   11  A    between atoms: _21  and  _24
REMARK   12  A    between atoms: _24  and  _25
REMARK   13  A    between atoms: _28  and  _30
REMARK   14  A    between atoms: _30  and  _31
REMARK   15  A    between atoms: _30  and  _33
REMARK   16  A    between atoms: _33  and  _34
REMARK   17  A    between atoms: _37  and  _39
REMARK   18  A    between atoms: _39  and  _40
REMARK   19  A    between atoms: _39  and  _42
REMARK   20  A    between atoms: _42  and  _43
REMARK   21  A    between atoms: _46  and  _48
REMARK   22  A    between atoms: _48  and  _49
REMARK   23  A    between atoms: _52  and  _54
REMARK   24  A    between atoms: _54  and  _55
REMARK   25  A    between atoms: _54  and  _57
REMARK   26  A    between atoms: _57  and  _58
REMARK   27  A    between atoms: _63  and  _64
REMARK   28  A    between atoms: _66  and  _68
REMARK   29  A    between atoms: _68  and  _69
REMARK   30  A    between atoms: _68  and  _71
REMARK   31  A    between atoms: _71  and  _72
REMARK   32  A    between atoms: _75  and  _77
REMARK   33  A    between atoms: _77  and  _78
REMARK   34  A    between atoms: _77  and  _80
REMARK   35  A    between atoms: _80  and  _81
REMARK   36  A    between atoms: _84  and  _86
REMARK   37  A    between atoms: _86  and  _87
REMARK   38  A    between atoms: _86  and  _89
REMARK   39  A    between atoms: _89  and  _90
REMARK   40  A    between atoms: _96  and  _98
REMARK   41  A    between atoms: _98  and  _99
REMARK   42  A    between atoms: _98  and  _101
REMARK   43  A    between atoms: _101  and  _102
REMARK   44  A    between atoms: _105  and  _107
REMARK   45  A    between atoms: _107  and  _108
REMARK   46  A    between atoms: _107  and  _110
REMARK   47  A    between atoms: _110  and  _111
REMARK   48  A    between atoms: _114  and  _116
REMARK   49  A    between atoms: _116  and  _117
REMARK   50  A    between atoms: _119  and  _121
REMARK   51  A    between atoms: _121  and  _122
REMARK   52  A    between atoms: _121  and  _124
REMARK   53  A    between atoms: _124  and  _125
REMARK   54  A    between atoms: _127  and  _129
REMARK   55  A    between atoms: _129  and  _130
REMARK   56  A    between atoms: _129  and  _132
REMARK   57  A    between atoms: _132  and  _133
REMARK   58  A    between atoms: _135  and  _137
REMARK   59  A    between atoms: _137  and  _138
REMARK   60  A    between atoms: _137  and  _140
REMARK   61  A    between atoms: _140  and  _141
REMARK   62  A    between atoms: _144  and  _146
REMARK   63  A    between atoms: _146  and  _147
REMARK   64  A    between atoms: _146  and  _149
REMARK   65  A    between atoms: _149  and  _150
REMARK   66  A    between atoms: _160  and  _162
REMARK   67  A    between atoms: _162  and  _163
REMARK   68  A    between atoms: _162  and  _165
REMARK   69  A    between atoms: _165  and  _166
REMARK   70  A    between atoms: _168  and  _170
REMARK   71  A    between atoms: _170  and  _171
REMARK   72  A    between atoms: _170  and  _173
REMARK   73  A    between atoms: _173  and  _174
REMARK   74  A    between atoms: _177  and  _179
REMARK   75  A    between atoms: _179  and  _180
REMARK   76  A    between atoms: _179  and  _182
REMARK   77  A    between atoms: _182  and  _183
REMARK   78  A    between atoms: _185  and  _187
REMARK   79  A    between atoms: _187  and  _188
REMARK   80  A    between atoms: _187  and  _190
REMARK   81  A    between atoms: _190  and  _191
REMARK   82  A    between atoms: _196  and  _197
REMARK   83  A    between atoms: _199  and  _201
REMARK   84  A    between atoms: _201  and  _202
REMARK   85  A    between atoms: _204  and  _206
REMARK   86  A    between atoms: _206  and  _207
REMARK   87  A    between atoms: _206  and  _209
REMARK   88  A    between atoms: _209  and  _210
REMARK   89  A    between atoms: _213  and  _215
REMARK   90  A    between atoms: _215  and  _216
REMARK   91  A    between atoms: _218  and  _220
REMARK   92  A    between atoms: _220  and  _221
REMARK   93  A    between atoms: _220  and  _223
REMARK   94  A    between atoms: _223  and  _224
REMARK   95  A    between atoms: _226  and  _228
REMARK   96  A    between atoms: _228  and  _229
REMARK   97  A    between atoms: _228  and  _231
REMARK   98  A    between atoms: _231  and  _232
REMARK   99  A    between atoms: _234  and  _236
REMARK  100  A    between atoms: _236  and  _237
REMARK  101  A    between atoms: _236  and  _239
REMARK  102  A    between atoms: _239  and  _240
REMARK  103  A    between atoms: _242  and  _244
REMARK  104  A    between atoms: _244  and  _245
REMARK  105  A    between atoms: _244  and  _247
REMARK  106  A    between atoms: _247  and  _248
REMARK  107  A    between atoms: _250  and  _252
REMARK  108  A    between atoms: _252  and  _253
REMARK  109  A    between atoms: _252  and  _255
REMARK  110  A    between atoms: _255  and  _256
REMARK  111  A    between atoms: _262  and  _264
REMARK  112  A    between atoms: _264  and  _265
REMARK  113  A    between atoms: _264  and  _267
REMARK  114  A    between atoms: _267  and  _268
REMARK  115  A    between atoms: _268  and  _269
REMARK  116  A    between atoms: _272  and  _274
REMARK  117  A    between atoms: _274  and  _275
REMARK  118  A    between atoms: _274  and  _277
REMARK  119  A    between atoms: _277  and  _278
REMARK  120  A    between atoms: _281  and  _283
REMARK  121  A    between atoms: _283  and  _284
REMARK  122  A    between atoms: _283  and  _286
REMARK  123  A    between atoms: _286  and  _287
REMARK  124  A    between atoms: _290  and  _292
REMARK  125  A    between atoms: _292  and  _293
REMARK  126  A    between atoms: _292  and  _295
REMARK  127  A    between atoms: _295  and  _296
REMARK  128  A    between atoms: _299  and  _301
REMARK  129  A    between atoms: _301  and  _302
REMARK  130  A    between atoms: _304  and  _306
REMARK  131  A    between atoms: _306  and  _307
REMARK  132  A    between atoms: _306  and  _309
REMARK  133  A    between atoms: _309  and  _310
REMARK  134  A    between atoms: _313  and  _315
REMARK  135  A    between atoms: _315  and  _316
REMARK  136  A    between atoms: _315  and  _318
REMARK  137  A    between atoms: _318  and  _319
REMARK  138  A    between atoms: _322  and  _324
REMARK  139  A    between atoms: _324  and  _325
REMARK  140  A    between atoms: _328  and  _330
REMARK  141  A    between atoms: _330  and  _331
REMARK  142  A    between atoms: _330  and  _333
REMARK  143  A    between atoms: _333  and  _334
REMARK  144  A    between atoms: _337  and  _339
REMARK  145  A    between atoms: _339  and  _340
REMARK  146  A    between atoms: _339  and  _342
REMARK  147  A    between atoms: _342  and  _343
REMARK  148  A    between atoms: _348  and  _350
REMARK  149  A    between atoms: _350  and  _351
REMARK  150  A    between atoms: _350  and  _353
REMARK  151  A    between atoms: _353  and  _354
REMARK  152  A    between atoms: _357  and  _359
REMARK  153  A    between atoms: _359  and  _360
REMARK  154  A    between atoms: _359  and  _362
REMARK  155  A    between atoms: _362  and  _363
REMARK  156  A    between atoms: _363  and  _364
REMARK  157  A    between atoms: _369  and  _371
REMARK  158  A    between atoms: _371  and  _372
REMARK  159  A    between atoms: _374  and  _376
REMARK  160  A    between atoms: _376  and  _377
REMARK  161  A    between atoms: _376  and  _379
REMARK  162  A    between atoms: _379  and  _380
REMARK  163  A    between atoms: _386  and  _388
REMARK  164  A    between atoms: _388  and  _389
REMARK  165  A    between atoms: _388  and  _391
REMARK  166  A    between atoms: _391  and  _392
REMARK  167  A    between atoms: _395  and  _397
REMARK  168  A    between atoms: _397  and  _398
REMARK  169  A    between atoms: _401  and  _403
REMARK  170  A    between atoms: _403  and  _404
REMARK  171  A    between atoms: _403  and  _406
REMARK  172  A    between atoms: _406  and  _407
REMARK  173  A    between atoms: _410  and  _412
REMARK  174  A    between atoms: _412  and  _413
REMARK  175  A    between atoms: _412  and  _415
REMARK  176  A    between atoms: _415  and  _416
REMARK  177  A    between atoms: _419  and  _421
REMARK  178  A    between atoms: _421  and  _422
REMARK  179  A    between atoms: _424  and  _426
REMARK  180  A    between atoms: _426  and  _427
REMARK  181  A    between atoms: _426  and  _429
REMARK  182  A    between atoms: _429  and  _430
REMARK  183  A    between atoms: _433  and  _435
REMARK  184  A    between atoms: _435  and  _436
REMARK  185  A    between atoms: _435  and  _438
REMARK  186  A    between atoms: _438  and  _439
REMARK  187  A    between atoms: _442  and  _444
REMARK  188  A    between atoms: _444  and  _445
REMARK  189  A    between atoms: _444  and  _447
REMARK  190  A    between atoms: _447  and  _448
REMARK  191  A    between atoms: _451  and  _453
REMARK  192  A    between atoms: _453  and  _454
REMARK  193  A    between atoms: _453  and  _456
REMARK  194  A    between atoms: _456  and  _457
REMARK  195  A    between atoms: _460  and  _462
REMARK  196  A    between atoms: _462  and  _463
REMARK  197  A    between atoms: _462  and  _465
REMARK  198  A    between atoms: _465  and  _466
REMARK  199  A    between atoms: _471  and  _472
REMARK  200  A    between atoms: _474  and  _476
REMARK  201  A    between atoms: _476  and  _477
REMARK  202  A    between atoms: _476  and  _479
REMARK  203  A    between atoms: _482  and  _484
REMARK  204  A    between atoms: _484  and  _485
REMARK  205  A    between atoms: _487  and  _489
REMARK  206  A    between atoms: _489  and  _490
REMARK  207  A    between atoms: _489  and  _492
REMARK  208  A    between atoms: _492  and  _493
REMARK  209  A    between atoms: _499  and  _501
REMARK  210  A    between atoms: _501  and  _502
REMARK  211  A    between atoms: _504  and  _506
REMARK  212  A    between atoms: _506  and  _507
REMARK  213  A    between atoms: _506  and  _509
REMARK  214  A    between atoms: _509  and  _510
REMARK  215  A    between atoms: _516  and  _518
REMARK  216  A    between atoms: _518  and  _519
REMARK  217  A    between atoms: _521  and  _523
REMARK  218  A    between atoms: _523  and  _524
REMARK  219  A    between atoms: _526  and  _528
REMARK  220  A    between atoms: _528  and  _529
REMARK  221  A    between atoms: _528  and  _531
REMARK  222  A    between atoms: _531  and  _532
REMARK  223  A    between atoms: _532  and  _533
REMARK  224  A    between atoms: _538  and  _540
REMARK  225  A    between atoms: _540  and  _541
REMARK  226  A    between atoms: _543  and  _545
REMARK  227  A    between atoms: _545  and  _546
REMARK  228  A    between atoms: _545  and  _548
REMARK  229  A    between atoms: _548  and  _549
REMARK  230  A    between atoms: _552  and  _554
REMARK  231  A    between atoms: _554  and  _555
REMARK  232  A    between atoms: _557  and  _559
REMARK  233  A    between atoms: _559  and  _560
REMARK  234  A    between atoms: _559  and  _562
REMARK  235  A    between atoms: _562  and  _563
REMARK  236  A    between atoms: _566  and  _568
REMARK  237  A    between atoms: _568  and  _569
REMARK  238  A    between atoms: _568  and  _571
REMARK  239  A    between atoms: _571  and  _572
REMARK  240  A    between atoms: _577  and  _579
REMARK  241  A    between atoms: _579  and  _580
REMARK  242  A    between atoms: _579  and  _582
REMARK  243  A    between atoms: _582  and  _583
REMARK  244  A    between atoms: _586  and  _588
REMARK  245  A    between atoms: _588  and  _589
REMARK  246  A    between atoms: _591  and  _593
REMARK  247  A    between atoms: _593  and  _594
REMARK  248  A    between atoms: _593  and  _596
REMARK  249  A    between atoms: _596  and  _597
REMARK  250  A    between atoms: _600  and  _602
REMARK  251  A    between atoms: _602  and  _603
REMARK  252  A    between atoms: _602  and  _605
REMARK                            x       y       z     vdW  Elec       q    Type
REMARK                         _______ _______ _______ _____ _____    ______ ____
ROOT
ATOM      1  C   ILE A   1      13.902  21.735  21.338  0.00  0.00    +0.238 C 
ATOM      2  O   ILE A   1      14.190  21.927  22.520  0.00  0.00    -0.274 OA
ATOM      3  N   ASP A   2      13.188  20.692  20.936  0.00  0.00    -0.298 N 
ATOM      4  H   ASP A   2      12.996  20.575  19.921  0.00  0.00    +0.150 HD
ENDROOT
BRANCH   1   5
ATOM      5  CA  ILE A   1      14.366  22.727  20.278  0.00  0.00    +0.145 C 
BRANCH   5   6
ATOM      6  N   ILE A   1      14.144  22.253  18.922  0.00  0.00    -0.238 NA
ATOM      7  H   ILE A   1      13.404  22.717  18.357  0.00  0.00    +0.142 HD
ENDBRANCH   5   6
BRANCH   5   8
ATOM      8  CB  ILE A   1      13.607  24.053  20.509  0.00  0.00    +0.025 C 
ATOM      9  CG2 ILE A   1      14.223  25.161  19.677  0.00  0.00    +0.002 C 
BRANCH   8  10
ATOM     10  CG1 ILE A   1      12.110  23.923  20.252  0.00  0.00    +0.002 C 
ATOM     11  CD1 ILE A   1      11.219  24.848  21.042  0.00  0.00    +0.000 C 
ENDBRANCH   8  10
ENDBRANCH   5   8
ENDBRANCH   1   5
BRANCH   3  12
ATOM     12  CA  ASP A   2      12.664  19.704  21.873  0.00  0.00    +0.148 C 
BRANCH  12  13
ATOM     13  C   ASP A   2      12.113  18.480  21.142  0.00  0.00    +0.227 C 
ATOM     14  O   ASP A   2      12.100  18.452  19.911  0.00  0.00    -0.286 OA
ENDBRANCH  12  13
BRANCH  12  15
ATOM     15  CB  ASP A   2      11.567  20.297  22.749  0.00  0.00    +0.142 C 
BRANCH  15  16
ATOM     16  CG  ASP A   2      10.312  20.730  22.033  0.00  0.00    +0.367 C 
ATOM     17  OD2 ASP A   2       9.783  21.819  22.353  0.00  0.00    -0.246 OA
ATOM     18  OD1 ASP A   2       9.795  20.028  21.144  0.00  0.00    -0.246 OA
ENDBRANCH  15  16
ENDBRANCH  12  15
ENDBRANCH   3  12
TORSDOF 8
REMARK  Name = ../refined-set-2016/3uri/3uri_pocket.pdb
REMARK  252 active torsions:
REMARK  status: ('A' for Active; 'I' for Inactive)
REMARK    1  A    between atoms: _1  and  _3
REMARK    2  A    between atoms: _3  and  _4
REMARK    3  A    between atoms: _3  and  _6
REMARK    4  A    between atoms: _6  and  _7
REMARK    5  A    between atoms: _10  and  _12
REMARK    6  A    between atoms: _12  and  _13
REMARK    7  A    between atoms: _12  and  _15
REMARK    8  A    between atoms: _15  and  _16
REMARK    9  A    between atoms: _19  and  _21
REMARK   10  A    between atoms: _21  and  _22
REMARK   11  A    between atoms: _21  and  _24
REMARK   12  A    between atoms: _24  and  _25
REMARK   13  A    between atoms: _28  and  _30
REMARK   14  A    between atoms: _30  and  _31
REMARK   15  A    between atoms: _30  and  _33
REMARK   16  A    between atoms: _33  and  _34
REMARK   17  A    between atoms: _37  and  _39
REMARK   18  A    between atoms: _39  and  _40
REMARK   19  A    between atoms: _39  and  _42
REMARK   20  A    between atoms: _42  and  _43
REMARK   21  A    between atoms: _46  and  _48
REMARK   22  A    between atoms: _48  and  _49
REMARK   23  A    between atoms: _52  and  _54
REMARK   24  A    between atoms: _54  and  _55
REMARK   25  A    between atoms: _54  and  _57
REMARK   26  A    between atoms: _57  and  _58
REMARK   27  A    between atoms: _63  and  _64
REMARK   28  A    between atoms: _66  and  _68
REMARK   29  A    between atoms: _68  and  _69
REMARK   30  A    between atoms: _68  and  _71
REMARK   31  A    between atoms: _71  and  _72
REMARK   32  A    between atoms: _75  and  _77
REMARK   33  A    between atoms: _77  and  _78
REMARK   34  A    between atoms: _77  and  _80
REMARK   35  A    between atoms: _80  and  _81
REMARK   36  A    between atoms: _84  and  _86
REMARK   37  A    between atoms: _86  and  _87
REMARK   38  A    between atoms: _86  and  _89
REMARK   39  A    between atoms: _89  and  _90
REMARK   40  A    between atoms: _96  and  _98
REMARK   41  A    between atoms: _98  and  _99
REMARK   42  A    between atoms: _98  and  _101
REMARK   43  A    between atoms: _101  and  _102
REMARK   44  A    between atoms: _105  and  _107
REMARK   45  A    between atoms: _107  and  _108
REMARK   46  A    between atoms: _107  and  _110
REMARK   47  A    between atoms: _110  and  _111
REMARK   48  A    between atoms: _114  and  _116
REMARK   49  A    between atoms: _116  and  _117
REMARK   50  A    between atoms: _119  and  _121
REMARK   51  A    between atoms: _121  and  _122
REMARK   52  A    between atoms: _121  and  _124
REMARK   53  A    between atoms: _124  and  _125
REMARK   54  A    between atoms: _127  and  _129
REMARK   55  A    between atoms: _129  and  _130
REMARK   56  A    between atoms: _129  and  _132
REMARK   57  A    between atoms: _132  and  _133
REMARK   58  A    between atoms: _135  and  _137
REMARK   59  A    between atoms: _137  and  _138
REMARK   60  A    between atoms: _137  and  _140
REMARK   61  A    between atoms: _140  and  _141
REMARK   62  A    between atoms: _144  and  _146
REMARK   63  A    between atoms: _146  and  _147
REMARK   64  A    between atoms: _146  and  _149
REMARK   65  A    between atoms: _149  and  _150
REMARK   66  A    between atoms: _160  and  _162
REMARK   67  A    between atoms: _162  and  _163
REMARK   68  A    between atoms: _162  and  _165
REMARK   69  A    between atoms: _165  and  _166
REMARK   70  A    between atoms: _168  and  _170
REMARK   71  A    between atoms: _170  and  _171
REMARK   72  A    between atoms: _170  and  _173
REMARK   73  A    between atoms: _173  and  _174
REMARK   74  A    between atoms: _177  and  _179
REMARK   75  A    between atoms: _179  and  _180
REMARK   76  A    between atoms: _179  and  _182
REMARK   77  A    between atoms: _182  and  _183
REMARK   78  A    between atoms: _185  and  _187
REMARK   79  A    between atoms: _187  and  _188
REMARK   80  A    between atoms: _187  and  _190
REMARK   81  A    between atoms: _190  and  _191
REMARK   82  A    between atoms: _196  and  _197
REMARK   83  A    between atoms: _199  and  _201
REMARK   84  A    between atoms: _201  and  _202
REMARK   85  A    between atoms: _204  and  _206
REMARK   86  A    between atoms: _206  and  _207
REMARK   87  A    between atoms: _206  and  _209
REMARK   88  A    between atoms: _209  and  _210
REMARK   89  A    between atoms: _213  and  _215
REMARK   90  A    between atoms: _215  and  _216
REMARK   91  A    between atoms: _218  and  _220
REMARK   92  A    between atoms: _220  and  _221
REMARK   93  A    between atoms: _220  and  _223
REMARK   94  A    between atoms: _223  and  _224
REMARK   95  A    between atoms: _226  and  _228
REMARK   96  A    between atoms: _228  and  _229
REMARK   97  A    between atoms: _228  and  _231
REMARK   98  A    between atoms: _231  and  _232
REMARK   99  A    between atoms: _234  and  _236
REMARK  100  A    between atoms: _236  and  _237
REMARK  101  A    between atoms: _236  and  _239
REMARK  102  A    between atoms: _239  and  _240
REMARK  103  A    between atoms: _242  and  _244
REMARK  104  A    between atoms: _244  and  _245
REMARK  105  A    between atoms: _244  and  _247
REMARK  106  A    between atoms: _247  and  _248
REMARK  107  A    between atoms: _250  and  _252
REMARK  108  A    between atoms: _252  and  _253
REMARK  109  A    between atoms: _252  and  _255
REMARK  110  A    between atoms: _255  and  _256
REMARK  111  A    between atoms: _262  and  _264
REMARK  112  A    between atoms: _264  and  _265
REMARK  113  A    between atoms: _264  and  _267
REMARK  114  A    between atoms: _267  and  _268
REMARK  115  A    between atoms: _268  and  _269
REMARK  116  A    between atoms: _272  and  _274
REMARK  117  A    between atoms: _274  and  _275
REMARK  118  A    between atoms: _274  and  _277
REMARK  119  A    between atoms: _277  and  _278
REMARK  120  A    between atoms: _281  and  _283
REMARK  121  A    between atoms: _283  and  _284
REMARK  122  A    between atoms: _283  and  _286
REMARK  123  A    between atoms: _286  and  _287
REMARK  124  A    between atoms: _290  and  _292
REMARK  125  A    between atoms: _292  and  _293
REMARK  126  A    between atoms: _292  and  _295
REMARK  127  A    between atoms: _295  and  _296
REMARK  128  A    between atoms: _299  and  _301
REMARK  129  A    between atoms: _301  and  _302
REMARK  130  A    between atoms: _304  and  _306
REMARK  131  A    between atoms: _306  and  _307
REMARK  132  A    between atoms: _306  and  _309
REMARK  133  A    between atoms: _309  and  _310
REMARK  134  A    between atoms: _313  and  _315
REMARK  135  A    between atoms: _315  and  _316
REMARK  136  A    between atoms: _315  and  _318
REMARK  137  A    between atoms: _318  and  _319
REMARK  138  A    between atoms: _322  and  _324
REMARK  139  A    between atoms: _324  and  _325
REMARK  140  A    between atoms: _328  and  _330
REMARK  141  A    between atoms: _330  and  _331
REMARK  142  A    between atoms: _330  and  _333
REMARK  143  A    between atoms: _333  and  _334
REMARK  144  A    between atoms: _337  and  _339
REMARK  145  A    between atoms: _339  and  _340
REMARK  146  A    between atoms: _339  and  _342
REMARK  147  A    between atoms: _342  and  _343
REMARK  148  A    between atoms: _348  and  _350
REMARK  149  A    between atoms: _350  and  _351
REMARK  150  A    between atoms: _350  and  _353
REMARK  151  A    between atoms: _353  and  _354
REMARK  152  A    between atoms: _357  and  _359
REMARK  153  A    between atoms: _359  and  _360
REMARK  154  A    between atoms: _359  and  _362
REMARK  155  A    between atoms: _362  and  _363
REMARK  156  A    between atoms: _363  and  _364
REMARK  157  A    between atoms: _369  and  _371
REMARK  158  A    between atoms: _371  and  _372
REMARK  159  A    between atoms: _374  and  _376
REMARK  160  A    between atoms: _376  and  _377
REMARK  161  A    between atoms: _376  and  _379
REMARK  162  A    between atoms: _379  and  _380
REMARK  163  A    between atoms: _386  and  _388
REMARK  164  A    between atoms: _388  and  _389
REMARK  165  A    between atoms: _388  and  _391
REMARK  166  A    between atoms: _391  and  _392
REMARK  167  A    between atoms: _395  and  _397
REMARK  168  A    between atoms: _397  and  _398
REMARK  169  A    between atoms: _401  and  _403
REMARK  170  A    between atoms: _403  and  _404
REMARK  171  A    between atoms: _403  and  _406
REMARK  172  A    between atoms: _406  and  _407
REMARK  173  A    between atoms: _410  and  _412
REMARK  174  A    between atoms: _412  and  _413
REMARK  175  A    between atoms: _412  and  _415
REMARK  176  A    between atoms: _415  and  _416
REMARK  177  A    between atoms: _419  and  _421
REMARK  178  A    between atoms: _421  and  _422
REMARK  179  A    between atoms: _424  and  _426
REMARK  180  A    between atoms: _426  and  _427
REMARK  181  A    between atoms: _426  and  _429
REMARK  182  A    between atoms: _429  and  _430
REMARK  183  A    between atoms: _433  and  _435
REMARK  184  A    between atoms: _435  and  _436
REMARK  185  A    between atoms: _435  and  _438
REMARK  186  A    between atoms: _438  and  _439
REMARK  187  A    between atoms: _442  and  _444
REMARK  188  A    between atoms: _444  and  _445
REMARK  189  A    between atoms: _444  and  _447
REMARK  190  A    between atoms: _447  and  _448
REMARK  191  A    between atoms: _451  and  _453
REMARK  192  A    between atoms: _453  and  _454
REMARK  193  A    between atoms: _453  and  _456
REMARK  194  A    between atoms: _456  and  _457
REMARK  195  A    between atoms: _460  and  _462
REMARK  196  A    between atoms: _462  and  _463
REMARK  197  A    between atoms: _462  and  _465
REMARK  198  A    between atoms: _465  and  _466
REMARK  199  A    between atoms: _471  and  _472
REMARK  200  A    between atoms: _474  and  _476
REMARK  201  A    between atoms: _476  and  _477
REMARK  202  A    between atoms: _476  and  _479
REMARK  203  A    between atoms: _482  and  _484
REMARK  204  A    between atoms: _484  and  _485
REMARK  205  A    between atoms: _487  and  _489
REMARK  206  A    between atoms: _489  and  _490
REMARK  207  A    between atoms: _489  and  _492
REMARK  208  A    between atoms: _492  and  _493
REMARK  209  A    between atoms: _499  and  _501
REMARK  210  A    between atoms: _501  and  _502
REMARK  211  A    between atoms: _504  and  _506
REMARK  212  A    between atoms: _506  and  _507
REMARK  213  A    between atoms: _506  and  _509
REMARK  214  A    between atoms: _509  and  _510
REMARK  215  A    between atoms: _516  and  _518
REMARK  216  A    between atoms: _518  and  _519
REMARK  217  A    between atoms: _521  and  _523
REMARK  218  A    between atoms: _523  and  _524
REMARK  219  A    between atoms: _526  and  _528
REMARK  220  A    between atoms: _528  and  _529
REMARK  221  A    between atoms: _528  and  _531
REMARK  222  A    between atoms: _531  and  _532
REMARK  223  A    between atoms: _532  and  _533
REMARK  224  A    between atoms: _538  and  _540
REMARK  225  A    between atoms: _540  and  _541
REMARK  226  A    between atoms: _543  and  _545
REMARK  227  A    between atoms: _545  and  _546
REMARK  228  A    between atoms: _545  and  _548
REMARK  229  A    between atoms: _548  and  _549
REMARK  230  A    between atoms: _552  and  _554
REMARK  231  A    between atoms: _554  and  _555
REMARK  232  A    between atoms: _557  and  _559
REMARK  233  A    between atoms: _559  and  _560
REMARK  234  A    between atoms: _559  and  _562
REMARK  235  A    between atoms: _562  and  _563
REMARK  236  A    between atoms: _566  and  _568
REMARK  237  A    between atoms: _568  and  _569
REMARK  238  A    between atoms: _568  and  _571
REMARK  239  A    between atoms: _571  and  _572
REMARK  240  A    between atoms: _577  and  _579
REMARK  241  A    between atoms: _579  and  _580
REMARK  242  A    between atoms: _579  and  _582
REMARK  243  A    between atoms: _582  and  _583
REMARK  244  A    between atoms: _586  and  _588
REMARK  245  A    between atoms: _588  and  _589
REMARK  246  A    between atoms: _591  and  _593
REMARK  247  A    between atoms: _593  and  _594
REMARK  248  A    between atoms: _593  and  _596
REMARK  249  A    between atoms: _596  and  _597
REMARK  250  A    between atoms: _600  and  _602
REMARK  251  A    between atoms: _602  and  _603
REMARK  252  A    between atoms: _602  and  _605
REMARK                            x       y       z     vdW  Elec       q    Type
REMARK                         _______ _______ _______ _____ _____    ______ ____
ROOT
ATOM      1  C   ASP A   3       8.088  23.906  17.691  0.00  0.00    +0.241 C 
ATOM      2  N   ALA A   4       9.381  23.865  17.414  0.00  0.00    -0.297 N 
ATOM      3  H   ALA A   4       9.926  23.042  17.741  0.00  0.00    +0.150 HD
ATOM      4  O   ASP A   3       7.336  24.803  17.309  0.00  0.00    -0.273 OA
ENDROOT
BRANCH   2   5
ATOM      5  CA  ALA A   4      10.082  24.902  16.681  0.00  0.00    +0.149 C 
ATOM      6  CB  ALA A   4      10.049  26.228  17.437  0.00  0.00    +0.031 C 
BRANCH   5   7
ATOM      7  C   ALA A   4      11.530  24.489  16.455  0.00  0.00    +0.241 C 
ATOM      8  O   ALA A   4      12.017  23.599  17.151  0.00  0.00    -0.273 OA
ATOM      9  N   TYR A   5      12.196  25.137  15.508  0.00  0.00    -0.297 N 
ATOM     10  H   TYR A   5      11.725  25.881  14.954  0.00  0.00    +0.150 HD
BRANCH   9  11
ATOM     11  CA  TYR A   5      13.592  24.801  15.247  0.00  0.00    +0.153 C 
BRANCH  11  12
ATOM     12  C   TYR A   5      14.433  26.077  15.331  0.00  0.00    +0.241 C 
ATOM     13  N   ILE A   6      15.636  25.932  15.871  0.00  0.00    -0.298 N 
ATOM     14  H   ILE A   6      15.923  25.001  16.235  0.00  0.00    +0.150 HD
ATOM     15  O   TYR A   5      14.007  27.153  14.924  0.00  0.00    -0.273 OA
BRANCH  13  16
ATOM     16  CA  ILE A   6      16.562  27.052  15.963  0.00  0.00    +0.137 C 
BRANCH  16  17
ATOM     17  CB  ILE A   6      17.040  27.274  17.406  0.00  0.00    +0.026 C 
ATOM     18  CG2 ILE A   6      16.045  28.119  18.199  0.00  0.00    +0.002 C 
BRANCH  17  19
ATOM     19  CG1 ILE A   6      17.365  25.982  18.164  0.00  0.00    +0.002 C 
ATOM     20  CD1 ILE A   6      18.437  26.168  19.220  0.00  0.00    +0.000 C 
ENDBRANCH  17  19
ENDBRANCH  16  17
BRANCH  16  21
ATOM     21  C   ILE A   6      17.767  26.804  15.058  0.00  0.00    +0.227 C 
ATOM     22  O   ILE A   6      18.163  25.663  14.822  0.00  0.00    -0.286 OA
ENDBRANCH  16  21
ENDBRANCH  13  16
ENDBRANCH  11  12
BRANCH  11  23
ATOM     23  CB  TYR A   5      13.810  24.135  13.900  0.00  0.00    +0.055 C 
BRANCH  23  24
ATOM     24  CG  TYR A   5      12.940  22.978  13.501  0.00  0.00    -0.020 A 
ATOM     25  CD2 TYR A   5      11.559  23.101  13.407  0.00  0.00    -0.001 A 
ATOM     26  CE2 TYR A   5      10.759  22.034  13.037  0.00  0.00    +0.036 A 
ATOM     27  CZ  TYR A   5      11.337  20.817  12.745  0.00  0.00    +0.134 A 
ATOM     28  CE1 TYR A   5      12.705  20.665  12.823  0.00  0.00    +0.036 A 
ATOM     29  CD1 TYR A   5      13.495  21.736  13.197  0.00  0.00    -0.001 A 
BRANCH  27  30
ATOM     30  OH  TYR A   5      10.543  19.757  12.377  0.00  0.00    -0.506 OA
ATOM     31  HH  TYR A   5      11.111  18.965  12.204  0.00  0.00    +0.292 HD
ENDBRANCH  27  30
ENDBRANCH  23  24
ENDBRANCH  11  23
ENDBRANCH   9  11
ENDBRANCH   5   7
ENDBRANCH   2   5
BRANCH   1  32
ATOM     32  CA  ASP A   3       7.551  22.764  18.552  0.00  0.00    +0.160 C 
BRANCH  32  34
ATOM     33  C   ASP A   2       8.473  20.930  17.281  0.00  0.00    +0.241 C 
ATOM     34  N   ASP A   3       8.362  21.553  18.451  0.00  0.00    -0.297 N 
ATOM     35  H   ASP A   3       8.850  21.180  19.290  0.00  0.00    +0.150 HD
ATOM     36  O   ASP A   2       7.896  21.361  16.283  0.00  0.00    -0.273 OA
BRANCH  33  37
ATOM     37  CA  ASP A   2       9.342  19.671  17.251  0.00  0.00    +0.160 C 
BRANCH  37  39
ATOM     38  C   LEU A   1       8.028  18.361  18.814  0.00  0.00    +0.238 C 
ATOM     39  N   ASP A   2       9.189  18.931  18.506  0.00  0.00    -0.297 N 
ATOM     40  H   ASP A   2       9.994  18.851  19.160  0.00  0.00    +0.150 HD
ATOM     41  O   LEU A   1       7.077  18.380  18.023  0.00  0.00    -0.274 OA
BRANCH  38  42
ATOM     42  CA  LEU A   1       7.859  17.662  20.153  0.00  0.00    +0.145 C 
BRANCH  42  43
ATOM     43  N   LEU A   1       9.105  17.495  20.896  0.00  0.00    -0.238 NA
ATOM     44  H   LEU A   1       9.407  18.221  21.577  0.00  0.00    +0.142 HD
ENDBRANCH  42  43
BRANCH  42  45
ATOM     45  CB  LEU A   1       6.850  18.413  21.041  0.00  0.00    +0.026 C 
BRANCH  45  46
ATOM     46  CG  LEU A   1       6.475  17.653  22.323  0.00  0.00    +0.002 C 
ATOM     47  CD2 LEU A   1       5.125  18.097  22.855  0.00  0.00    +0.000 C 
ATOM     48  CD1 LEU A   1       6.510  16.153  22.058  0.00  0.00    +0.000 C 
ENDBRANCH  45  46
ENDBRANCH  42  45
ENDBRANCH  38  42
ENDBRANCH  37  39
BRANCH  37  49
ATOM     49  CB  ASP A   2       8.987  18.832  16.028  0.00  0.00    +0.143 C 
BRANCH  49  50
ATOM     50  CG  ASP A   2       9.967  17.746  15.651  0.00  0.00    +0.367 C 
ATOM     51  OD2 ASP A   2      10.888  17.449  16.441  0.00  0.00    -0.246 OA
ATOM     52  OD1 ASP A   2       9.820  17.166  14.548  0.00  0.00    -0.246 OA
ENDBRANCH  49  50
ENDBRANCH  37  49
ENDBRANCH  33  37
ENDBRANCH  32  34
BRANCH  32  53
ATOM     53  CB  ASP A   3       7.472  23.237  20.005  0.00  0.00    +0.143 C 
BRANCH  53  54
ATOM     54  CG  ASP A   3       6.425  22.475  20.793  0.00  0.00    +0.367 C 
ATOM     55  OD2 ASP A   3       6.704  22.173  21.969  0.00  0.00    -0.246 OA
ATOM     56  OD1 ASP A   3       5.343  22.183  20.240  0.00  0.00    -0.246 OA
ENDBRANCH  53  54
ENDBRANCH  32  53
ENDBRANCH   1  32
TORSDOF 23
REMARK  Name = ../refined-set-2016/3uri/3uri_pocket.pdb
REMARK  252 active torsions:
REMARK  status: ('A' for Active; 'I' for Inactive)
REMARK    1  A    between atoms: _1  and  _3
REMARK    2  A    between atoms: _3  and  _4
REMARK    3  A    between atoms: _3  and  _6
REMARK    4  A    between atoms: _6  and  _7
REMARK    5  A    between atoms: _10  and  _12
REMARK    6  A    between atoms: _12  and  _13
REMARK    7  A    between atoms: _12  and  _15
REMARK    8  A    between atoms: _15  and  _16
REMARK    9  A    between atoms: _19  and  _21
REMARK   10  A    between atoms: _21  and  _22
REMARK   11  A    between atoms: _21  and  _24
REMARK   12  A    between atoms: _24  and  _25
REMARK   13  A    between atoms: _28  and  _30
REMARK   14  A    between atoms: _30  and  _31
REMARK   15  A    between atoms: _30  and  _33
REMARK   16  A    between atoms: _33  and  _34
REMARK   17  A    between atoms: _37  and  _39
REMARK   18  A    between atoms: _39  and  _40
REMARK   19  A    between atoms: _39  and  _42
REMARK   20  A    between atoms: _42  and  _43
REMARK   21  A    between atoms: _46  and  _48
REMARK   22  A    between atoms: _48  and  _49
REMARK   23  A    between atoms: _52  and  _54
REMARK   24  A    between atoms: _54  and  _55
REMARK   25  A    between atoms: _54  and  _57
REMARK   26  A    between atoms: _57  and  _58
REMARK   27  A    between atoms: _63  and  _64
REMARK   28  A    between atoms: _66  and  _68
REMARK   29  A    between atoms: _68  and  _69
REMARK   30  A    between atoms: _68  and  _71
REMARK   31  A    between atoms: _71  and  _72
REMARK   32  A    between atoms: _75  and  _77
REMARK   33  A    between atoms: _77  and  _78
REMARK   34  A    between atoms: _77  and  _80
REMARK   35  A    between atoms: _80  and  _81
REMARK   36  A    between atoms: _84  and  _86
REMARK   37  A    between atoms: _86  and  _87
REMARK   38  A    between atoms: _86  and  _89
REMARK   39  A    between atoms: _89  and  _90
REMARK   40  A    between atoms: _96  and  _98
REMARK   41  A    between atoms: _98  and  _99
REMARK   42  A    between atoms: _98  and  _101
REMARK   43  A    between atoms: _101  and  _102
REMARK   44  A    between atoms: _105  and  _107
REMARK   45  A    between atoms: _107  and  _108
REMARK   46  A    between atoms: _107  and  _110
REMARK   47  A    between atoms: _110  and  _111
REMARK   48  A    between atoms: _114  and  _116
REMARK   49  A    between atoms: _116  and  _117
REMARK   50  A    between atoms: _119  and  _121
REMARK   51  A    between atoms: _121  and  _122
REMARK   52  A    between atoms: _121  and  _124
REMARK   53  A    between atoms: _124  and  _125
REMARK   54  A    between atoms: _127  and  _129
REMARK   55  A    between atoms: _129  and  _130
REMARK   56  A    between atoms: _129  and  _132
REMARK   57  A    between atoms: _132  and  _133
REMARK   58  A    between atoms: _135  and  _137
REMARK   59  A    between atoms: _137  and  _138
REMARK   60  A    between atoms: _137  and  _140
REMARK   61  A    between atoms: _140  and  _141
REMARK   62  A    between atoms: _144  and  _146
REMARK   63  A    between atoms: _146  and  _147
REMARK   64  A    between atoms: _146  and  _149
REMARK   65  A    between atoms: _149  and  _150
REMARK   66  A    between atoms: _160  and  _162
REMARK   67  A    between atoms: _162  and  _163
REMARK   68  A    between atoms: _162  and  _165
REMARK   69  A    between atoms: _165  and  _166
REMARK   70  A    between atoms: _168  and  _170
REMARK   71  A    between atoms: _170  and  _171
REMARK   72  A    between atoms: _170  and  _173
REMARK   73  A    between atoms: _173  and  _174
REMARK   74  A    between atoms: _177  and  _179
REMARK   75  A    between atoms: _179  and  _180
REMARK   76  A    between atoms: _179  and  _182
REMARK   77  A    between atoms: _182  and  _183
REMARK   78  A    between atoms: _185  and  _187
REMARK   79  A    between atoms: _187  and  _188
REMARK   80  A    between atoms: _187  and  _190
REMARK   81  A    between atoms: _190  and  _191
REMARK   82  A    between atoms: _196  and  _197
REMARK   83  A    between atoms: _199  and  _201
REMARK   84  A    between atoms: _201  and  _202
REMARK   85  A    between atoms: _204  and  _206
REMARK   86  A    between atoms: _206  and  _207
REMARK   87  A    between atoms: _206  and  _209
REMARK   88  A    between atoms: _209  and  _210
REMARK   89  A    between atoms: _213  and  _215
REMARK   90  A    between atoms: _215  and  _216
REMARK   91  A    between atoms: _218  and  _220
REMARK   92  A    between atoms: _220  and  _221
REMARK   93  A    between atoms: _220  and  _223
REMARK   94  A    between atoms: _223  and  _224
REMARK   95  A    between atoms: _226  and  _228
REMARK   96  A    between atoms: _228  and  _229
REMARK   97  A    between atoms: _228  and  _231
REMARK   98  A    between atoms: _231  and  _232
REMARK   99  A    between atoms: _234  and  _236
REMARK  100  A    between atoms: _236  and  _237
REMARK  101  A    between atoms: _236  and  _239
REMARK  102  A    between atoms: _239  and  _240
REMARK  103  A    between atoms: _242  and  _244
REMARK  104  A    between atoms: _244  and  _245
REMARK  105  A    between atoms: _244  and  _247
REMARK  106  A    between atoms: _247  and  _248
REMARK  107  A    between atoms: _250  and  _252
REMARK  108  A    between atoms: _252  and  _253
REMARK  109  A    between atoms: _252  and  _255
REMARK  110  A    between atoms: _255  and  _256
REMARK  111  A    between atoms: _262  and  _264
REMARK  112  A    between atoms: _264  and  _265
REMARK  113  A    between atoms: _264  and  _267
REMARK  114  A    between atoms: _267  and  _268
REMARK  115  A    between atoms: _268  and  _269
REMARK  116  A    between atoms: _272  and  _274
REMARK  117  A    between atoms: _274  and  _275
REMARK  118  A    between atoms: _274  and  _277
REMARK  119  A    between atoms: _277  and  _278
REMARK  120  A    between atoms: _281  and  _283
REMARK  121  A    between atoms: _283  and  _284
REMARK  122  A    between atoms: _283  and  _286
REMARK  123  A    between atoms: _286  and  _287
REMARK  124  A    between atoms: _290  and  _292
REMARK  125  A    between atoms: _292  and  _293
REMARK  126  A    between atoms: _292  and  _295
REMARK  127  A    between atoms: _295  and  _296
REMARK  128  A    between atoms: _299  and  _301
REMARK  129  A    between atoms: _301  and  _302
REMARK  130  A    between atoms: _304  and  _306
REMARK  131  A    between atoms: _306  and  _307
REMARK  132  A    between atoms: _306  and  _309
REMARK  133  A    between atoms: _309  and  _310
REMARK  134  A    between atoms: _313  and  _315
REMARK  135  A    between atoms: _315  and  _316
REMARK  136  A    between atoms: _315  and  _318
REMARK  137  A    between atoms: _318  and  _319
REMARK  138  A    between atoms: _322  and  _324
REMARK  139  A    between atoms: _324  and  _325
REMARK  140  A    between atoms: _328  and  _330
REMARK  141  A    between atoms: _330  and  _331
REMARK  142  A    between atoms: _330  and  _333
REMARK  143  A    between atoms: _333  and  _334
REMARK  144  A    between atoms: _337  and  _339
REMARK  145  A    between atoms: _339  and  _340
REMARK  146  A    between atoms: _339  and  _342
REMARK  147  A    between atoms: _342  and  _343
REMARK  148  A    between atoms: _348  and  _350
REMARK  149  A    between atoms: _350  and  _351
REMARK  150  A    between atoms: _350  and  _353
REMARK  151  A    between atoms: _353  and  _354
REMARK  152  A    between atoms: _357  and  _359
REMARK  153  A    between atoms: _359  and  _360
REMARK  154  A    between atoms: _359  and  _362
REMARK  155  A    between atoms: _362  and  _363
REMARK  156  A    between atoms: _363  and  _364
REMARK  157  A    between atoms: _369  and  _371
REMARK  158  A    between atoms: _371  and  _372
REMARK  159  A    between atoms: _374  and  _376
REMARK  160  A    between atoms: _376  and  _377
REMARK  161  A    between atoms: _376  and  _379
REMARK  162  A    between atoms: _379  and  _380
REMARK  163  A    between atoms: _386  and  _388
REMARK  164  A    between atoms: _388  and  _389
REMARK  165  A    between atoms: _388  and  _391
REMARK  166  A    between atoms: _391  and  _392
REMARK  167  A    between atoms: _395  and  _397
REMARK  168  A    between atoms: _397  and  _398
REMARK  169  A    between atoms: _401  and  _403
REMARK  170  A    between atoms: _403  and  _404
REMARK  171  A    between atoms: _403  and  _406
REMARK  172  A    between atoms: _406  and  _407
REMARK  173  A    between atoms: _410  and  _412
REMARK  174  A    between atoms: _412  and  _413
REMARK  175  A    between atoms: _412  and  _415
REMARK  176  A    between atoms: _415  and  _416
REMARK  177  A    between atoms: _419  and  _421
REMARK  178  A    between atoms: _421  and  _422
REMARK  179  A    between atoms: _424  and  _426
REMARK  180  A    between atoms: _426  and  _427
REMARK  181  A    between atoms: _426  and  _429
REMARK  182  A    between atoms: _429  and  _430
REMARK  183  A    between atoms: _433  and  _435
REMARK  184  A    between atoms: _435  and  _436
REMARK  185  A    between atoms: _435  and  _438
REMARK  186  A    between atoms: _438  and  _439
REMARK  187  A    between atoms: _442  and  _444
REMARK  188  A    between atoms: _444  and  _445
REMARK  189  A    between atoms: _444  and  _447
REMARK  190  A    between atoms: _447  and  _448
REMARK  191  A    between atoms: _451  and  _453
REMARK  192  A    between atoms: _453  and  _454
REMARK  193  A    between atoms: _453  and  _456
REMARK  194  A    between atoms: _456  and  _457
REMARK  195  A    between atoms: _460  and  _462
REMARK  196  A    between atoms: _462  and  _463
REMARK  197  A    between atoms: _462  and  _465
REMARK  198  A    between atoms: _465  and  _466
REMARK  199  A    between atoms: _471  and  _472
REMARK  200  A    between atoms: _474  and  _476
REMARK  201  A    between atoms: _476  and  _477
REMARK  202  A    between atoms: _476  and  _479
REMARK  203  A    between atoms: _482  and  _484
REMARK  204  A    between atoms: _484  and  _485
REMARK  205  A    between atoms: _487  and  _489
REMARK  206  A    between atoms: _489  and  _490
REMARK  207  A    between atoms: _489  and  _492
REMARK  208  A    between atoms: _492  and  _493
REMARK  209  A    between atoms: _499  and  _501
REMARK  210  A    between atoms: _501  and  _502
REMARK  211  A    between atoms: _504  and  _506
REMARK  212  A    between atoms: _506  and  _507
REMARK  213  A    between atoms: _506  and  _509
REMARK  214  A    between atoms: _509  and  _510
REMARK  215  A    between atoms: _516  and  _518
REMARK  216  A    between atoms: _518  and  _519
REMARK  217  A    between atoms: _521  and  _523
REMARK  218  A    between atoms: _523  and  _524
REMARK  219  A    between atoms: _526  and  _528
REMARK  220  A    between atoms: _528  and  _529
REMARK  221  A    between atoms: _528  and  _531
REMARK  222  A    between atoms: _531  and  _532
REMARK  223  A    between atoms: _532  and  _533
REMARK  224  A    between atoms: _538  and  _540
REMARK  225  A    between atoms: _540  and  _541
REMARK  226  A    between atoms: _543  and  _545
REMARK  227  A    between atoms: _545  and  _546
REMARK  228  A    between atoms: _545  and  _548
REMARK  229  A    between atoms: _548  and  _549
REMARK  230  A    between atoms: _552  and  _554
REMARK  231  A    between atoms: _554  and  _555
REMARK  232  A    between atoms: _557  and  _559
REMARK  233  A    between atoms: _559  and  _560
REMARK  234  A    between atoms: _559  and  _562
REMARK  235  A    between atoms: _562  and  _563
REMARK  236  A    between atoms: _566  and  _568
REMARK  237  A    between atoms: _568  and  _569
REMARK  238  A    between atoms: _568  and  _571
REMARK  239  A    between atoms: _571  and  _572
REMARK  240  A    between atoms: _577  and  _579
REMARK  241  A    between atoms: _579  and  _580
REMARK  242  A    between atoms: _579  and  _582
REMARK  243  A    between atoms: _582  and  _583
REMARK  244  A    between atoms: _586  and  _588
REMARK  245  A    between atoms: _588  and  _589
REMARK  246  A    between atoms: _591  and  _593
REMARK  247  A    between atoms: _593  and  _594
REMARK  248  A    between atoms: _593  and  _596
REMARK  249  A    between atoms: _596  and  _597
REMARK  250  A    between atoms: _600  and  _602
REMARK  251  A    between atoms: _602  and  _603
REMARK  252  A    between atoms: _602  and  _605
REMARK                            x       y       z     vdW  Elec       q    Type
REMARK                         _______ _______ _______ _____ _____    ______ ____
ROOT
ATOM      1  CA  THR A   4       9.138  32.686   7.188  0.00  0.00    +0.176 C 
ENDROOT
BRANCH   1   2
ATOM      2  C   THR A   4       7.791  33.385   7.262  0.00  0.00    +0.243 C 
ATOM      3  N   GLY A   5       7.213  33.477   8.461  0.00  0.00    -0.295 N 
ATOM      4  H   GLY A   5       7.659  33.025   9.284  0.00  0.00    +0.150 HD
ATOM      5  O   THR A   4       7.247  33.860   6.256  0.00  0.00    -0.273 OA
BRANCH   3   6
ATOM      6  CA  GLY A   5       5.965  34.204   8.626  0.00  0.00    +0.176 C 
BRANCH   6   7
ATOM      7  C   GLY A   5       6.187  35.568   9.253  0.00  0.00    +0.243 C 
ATOM      8  O   GLY A   5       5.261  36.256   9.693  0.00  0.00    -0.273 OA
ATOM      9  N   SER A   6       7.442  36.020   9.314  0.00  0.00    -0.295 N 
ATOM     10  H   SER A   6       8.240  35.431   9.003  0.00  0.00    +0.150 HD
BRANCH   9  11
ATOM     11  CA  SER A   6       7.659  37.374   9.834  0.00  0.00    +0.178 C 
BRANCH  11  12
ATOM     12  C   SER A   6       8.879  37.989   9.163  0.00  0.00    +0.243 C 
ATOM     13  N   SER A   7       9.093  39.278   9.418  0.00  0.00    -0.295 N 
ATOM     14  H   SER A   7       8.512  39.773  10.125  0.00  0.00    +0.150 HD
ATOM     15  O   SER A   6       9.610  37.320   8.417  0.00  0.00    -0.273 OA
BRANCH  13  16
ATOM     16  CA  SER A   7      10.145  39.996   8.703  0.00  0.00    +0.178 C 
BRANCH  16  17
ATOM     17  C   SER A   7      11.067  40.778   9.622  0.00  0.00    +0.243 C 
ATOM     18  N   ASP A   8      11.267  40.294  10.848  0.00  0.00    -0.297 N 
ATOM     19  H   ASP A   8      10.816  39.404  11.140  0.00  0.00    +0.150 HD
ATOM     20  O   SER A   7      11.608  41.817   9.231  0.00  0.00    -0.273 OA
BRANCH  18  21
ATOM     21  CA  ASP A   8      12.126  41.025  11.778  0.00  0.00    +0.148 C 
BRANCH  21  22
ATOM     22  C   ASP A   8      13.285  40.172  12.272  0.00  0.00    +0.227 C 
ATOM     23  O   ASP A   8      13.113  39.043  12.738  0.00  0.00    -0.286 OA
ENDBRANCH  21  22
BRANCH  21  24
ATOM     24  CB  ASP A   8      11.305  41.537  12.965  0.00  0.00    +0.142 C 
BRANCH  24  25
ATOM     25  CG  ASP A   8      10.683  42.894  12.705  0.00  0.00    +0.367 C 
ATOM     26  OD2 ASP A   8      11.096  43.879  13.363  0.00  0.00    -0.246 OA
ATOM     27  OD1 ASP A   8       9.781  42.945  11.834  0.00  0.00    -0.246 OA
ENDBRANCH  24  25
ENDBRANCH  21  24
ENDBRANCH  18  21
ENDBRANCH  16  17
BRANCH  16  28
ATOM     28  CB  SER A   7       9.500  40.948   7.684  0.00  0.00    +0.166 C 
BRANCH  28  29
ATOM     29  OG  SER A   7       8.726  40.202   6.755  0.00  0.00    -0.380 OA
ATOM     30  H   SER A   7       8.313  40.819   6.101  0.00  0.00    +0.211 HD
ENDBRANCH  28  29
ENDBRANCH  16  28
ENDBRANCH  13  16
ENDBRANCH  11  12
BRANCH  11  31
ATOM     31  CB  SER A   6       7.763  37.360  11.357  0.00  0.00    +0.166 C 
BRANCH  31  32
ATOM     32  OG  SER A   6       8.995  36.847  11.819  0.00  0.00    -0.380 OA
ATOM     33  H   SER A   6       9.007  36.862  12.809  0.00  0.00    +0.211 HD
ENDBRANCH  31  32
ENDBRANCH  11  31
ENDBRANCH   9  11
ENDBRANCH   6   7
ENDBRANCH   3   6
ENDBRANCH   1   2
BRANCH   1  36
ATOM     34  C   ASP A   3      10.116  33.118   9.402  0.00  0.00    +0.241 C 
ATOM     35  O   ASP A   3      10.119  34.329   9.214  0.00  0.00    -0.273 OA
ATOM     36  N   THR A   4       9.663  32.275   8.485  0.00  0.00    -0.295 N 
ATOM     37  H   THR A   4       9.683  31.258   8.704  0.00  0.00    +0.150 HD
BRANCH  34  38
ATOM     38  CA  ASP A   3      10.584  32.512  10.720  0.00  0.00    +0.160 C 
BRANCH  38  41
ATOM     39  C   PHE A   2      12.626  31.204  11.071  0.00  0.00    +0.241 C 
ATOM     40  O   PHE A   2      12.017  30.136  11.140  0.00  0.00    -0.273 OA
ATOM     41  N   ASP A   3      12.032  32.366  10.819  0.00  0.00    -0.297 N 
ATOM     42  H   ASP A   3      12.626  33.209  10.686  0.00  0.00    +0.150 HD
BRANCH  39  43
ATOM     43  CA  PHE A   2      14.138  31.179  11.296  0.00  0.00    +0.153 C 
BRANCH  43  46
ATOM     44  C   ASP A   1      14.114  31.455  13.754  0.00  0.00    +0.239 C 
ATOM     45  O   ASP A   1      13.709  32.618  13.764  0.00  0.00    -0.274 OA
ATOM     46  N   PHE A   2      14.433  30.783  12.660  0.00  0.00    -0.297 N 
ATOM     47  H   PHE A   2      14.943  29.886  12.790  0.00  0.00    +0.150 HD
BRANCH  44  48
ATOM     48  CA  ASP A   1      14.303  30.681  15.058  0.00  0.00    +0.156 C 
BRANCH  48  49
ATOM     49  N   ASP A   1      15.361  31.341  15.814  0.00  0.00    -0.238 NA
ATOM     50  H   ASP A   1      15.095  31.987  16.584  0.00  0.00    +0.142 HD
ENDBRANCH  48  49
BRANCH  48  51
ATOM     51  CB  ASP A   1      13.056  30.608  15.913  0.00  0.00    +0.140 C 
BRANCH  51  52
ATOM     52  CG  ASP A   1      11.824  29.964  15.331  0.00  0.00    +0.367 C 
ATOM     53  OD2 ASP A   1      10.793  29.926  16.047  0.00  0.00    -0.246 OA
ATOM     54  OD1 ASP A   1      11.855  29.497  14.176  0.00  0.00    -0.246 OA
ENDBRANCH  51  52
ENDBRANCH  48  51
ENDBRANCH  44  48
ENDBRANCH  43  46
BRANCH  43  55
ATOM     55  CB  PHE A   2      14.806  30.211  10.318  0.00  0.00    +0.055 C 
BRANCH  55  56
ATOM     56  CG  PHE A   2      16.291  30.472  10.102  0.00  0.00    -0.020 A 
ATOM     57  CD2 PHE A   2      17.086  30.938  11.132  0.00  0.00    -0.004 A 
ATOM     58  CE2 PHE A   2      18.438  31.174  10.952  0.00  0.00    -0.000 A 
ATOM     59  CZ  PHE A   2      19.013  30.947   9.719  0.00  0.00    -0.000 A 
ATOM     60  CE1 PHE A   2      18.233  30.487   8.675  0.00  0.00    -0.000 A 
ATOM     61  CD1 PHE A   2      16.886  30.252   8.870  0.00  0.00    -0.004 A 
ENDBRANCH  55  56
ENDBRANCH  43  55
ENDBRANCH  39  43
ENDBRANCH  38  41
BRANCH  38  62
ATOM     62  CB  ASP A   3      10.086  33.374  11.887  0.00  0.00    +0.143 C 
BRANCH  62  63
ATOM     63  CG  ASP A   3       8.606  33.677  11.859  0.00  0.00    +0.367 C 
ATOM     64  OD2 ASP A   3       8.157  34.533  12.658  0.00  0.00    -0.246 OA
ATOM     65  OD1 ASP A   3       7.865  33.082  11.049  0.00  0.00    -0.246 OA
ENDBRANCH  62  63
ENDBRANCH  38  62
ENDBRANCH  34  38
ENDBRANCH   1  36
BRANCH   1  66
ATOM     66  CB  THR A   4       9.014  31.438   6.293  0.00  0.00    +0.137 C 
ATOM     67  CG2 THR A   4      10.372  30.778   6.142  0.00  0.00    +0.034 C 
BRANCH  66  68
ATOM     68  OG1 THR A   4       8.153  30.500   6.951  0.00  0.00    -0.382 OA
ATOM     69  HG1 THR A   4       8.543  30.254   7.827  0.00  0.00    +0.210 HD
ENDBRANCH  66  68
ENDBRANCH   1  66
TORSDOF 30
REMARK  Name = ../refined-set-2016/3uri/3uri_pocket.pdb
REMARK  252 active torsions:
REMARK  status: ('A' for Active; 'I' for Inactive)
REMARK    1  A    between atoms: _1  and  _3
REMARK    2  A    between atoms: _3  and  _4
REMARK    3  A    between atoms: _3  and  _6
REMARK    4  A    between atoms: _6  and  _7
REMARK    5  A    between atoms: _10  and  _12
REMARK    6  A    between atoms: _12  and  _13
REMARK    7  A    between atoms: _12  and  _15
REMARK    8  A    between atoms: _15  and  _16
REMARK    9  A    between atoms: _19  and  _21
REMARK   10  A    between atoms: _21  and  _22
REMARK   11  A    between atoms: _21  and  _24
REMARK   12  A    between atoms: _24  and  _25
REMARK   13  A    between atoms: _28  and  _30
REMARK   14  A    between atoms: _30  and  _31
REMARK   15  A    between atoms: _30  and  _33
REMARK   16  A    between atoms: _33  and  _34
REMARK   17  A    between atoms: _37  and  _39
REMARK   18  A    between atoms: _39  and  _40
REMARK   19  A    between atoms: _39  and  _42
REMARK   20  A    between atoms: _42  and  _43
REMARK   21  A    between atoms: _46  and  _48
REMARK   22  A    between atoms: _48  and  _49
REMARK   23  A    between atoms: _52  and  _54
REMARK   24  A    between atoms: _54  and  _55
REMARK   25  A    between atoms: _54  and  _57
REMARK   26  A    between atoms: _57  and  _58
REMARK   27  A    between atoms: _63  and  _64
REMARK   28  A    between atoms: _66  and  _68
REMARK   29  A    between atoms: _68  and  _69
REMARK   30  A    between atoms: _68  and  _71
REMARK   31  A    between atoms: _71  and  _72
REMARK   32  A    between atoms: _75  and  _77
REMARK   33  A    between atoms: _77  and  _78
REMARK   34  A    between atoms: _77  and  _80
REMARK   35  A    between atoms: _80  and  _81
REMARK   36  A    between atoms: _84  and  _86
REMARK   37  A    between atoms: _86  and  _87
REMARK   38  A    between atoms: _86  and  _89
REMARK   39  A    between atoms: _89  and  _90
REMARK   40  A    between atoms: _96  and  _98
REMARK   41  A    between atoms: _98  and  _99
REMARK   42  A    between atoms: _98  and  _101
REMARK   43  A    between atoms: _101  and  _102
REMARK   44  A    between atoms: _105  and  _107
REMARK   45  A    between atoms: _107  and  _108
REMARK   46  A    between atoms: _107  and  _110
REMARK   47  A    between atoms: _110  and  _111
REMARK   48  A    between atoms: _114  and  _116
REMARK   49  A    between atoms: _116  and  _117
REMARK   50  A    between atoms: _119  and  _121
REMARK   51  A    between atoms: _121  and  _122
REMARK   52  A    between atoms: _121  and  _124
REMARK   53  A    between atoms: _124  and  _125
REMARK   54  A    between atoms: _127  and  _129
REMARK   55  A    between atoms: _129  and  _130
REMARK   56  A    between atoms: _129  and  _132
REMARK   57  A    between atoms: _132  and  _133
REMARK   58  A    between atoms: _135  and  _137
REMARK   59  A    between atoms: _137  and  _138
REMARK   60  A    between atoms: _137  and  _140
REMARK   61  A    between atoms: _140  and  _141
REMARK   62  A    between atoms: _144  and  _146
REMARK   63  A    between atoms: _146  and  _147
REMARK   64  A    between atoms: _146  and  _149
REMARK   65  A    between atoms: _149  and  _150
REMARK   66  A    between atoms: _160  and  _162
REMARK   67  A    between atoms: _162  and  _163
REMARK   68  A    between atoms: _162  and  _165
REMARK   69  A    between atoms: _165  and  _166
REMARK   70  A    between atoms: _168  and  _170
REMARK   71  A    between atoms: _170  and  _171
REMARK   72  A    between atoms: _170  and  _173
REMARK   73  A    between atoms: _173  and  _174
REMARK   74  A    between atoms: _177  and  _179
REMARK   75  A    between atoms: _179  and  _180
REMARK   76  A    between atoms: _179  and  _182
REMARK   77  A    between atoms: _182  and  _183
REMARK   78  A    between atoms: _185  and  _187
REMARK   79  A    between atoms: _187  and  _188
REMARK   80  A    between atoms: _187  and  _190
REMARK   81  A    between atoms: _190  and  _191
REMARK   82  A    between atoms: _196  and  _197
REMARK   83  A    between atoms: _199  and  _201
REMARK   84  A    between atoms: _201  and  _202
REMARK   85  A    between atoms: _204  and  _206
REMARK   86  A    between atoms: _206  and  _207
REMARK   87  A    between atoms: _206  and  _209
REMARK   88  A    between atoms: _209  and  _210
REMARK   89  A    between atoms: _213  and  _215
REMARK   90  A    between atoms: _215  and  _216
REMARK   91  A    between atoms: _218  and  _220
REMARK   92  A    between atoms: _220  and  _221
REMARK   93  A    between atoms: _220  and  _223
REMARK   94  A    between atoms: _223  and  _224
REMARK   95  A    between atoms: _226  and  _228
REMARK   96  A    between atoms: _228  and  _229
REMARK   97  A    between atoms: _228  and  _231
REMARK   98  A    between atoms: _231  and  _232
REMARK   99  A    between atoms: _234  and  _236
REMARK  100  A    between atoms: _236  and  _237
REMARK  101  A    between atoms: _236  and  _239
REMARK  102  A    between atoms: _239  and  _240
REMARK  103  A    between atoms: _242  and  _244
REMARK  104  A    between atoms: _244  and  _245
REMARK  105  A    between atoms: _244  and  _247
REMARK  106  A    between atoms: _247  and  _248
REMARK  107  A    between atoms: _250  and  _252
REMARK  108  A    between atoms: _252  and  _253
REMARK  109  A    between atoms: _252  and  _255
REMARK  110  A    between atoms: _255  and  _256
REMARK  111  A    between atoms: _262  and  _264
REMARK  112  A    between atoms: _264  and  _265
REMARK  113  A    between atoms: _264  and  _267
REMARK  114  A    between atoms: _267  and  _268
REMARK  115  A    between atoms: _268  and  _269
REMARK  116  A    between atoms: _272  and  _274
REMARK  117  A    between atoms: _274  and  _275
REMARK  118  A    between atoms: _274  and  _277
REMARK  119  A    between atoms: _277  and  _278
REMARK  120  A    between atoms: _281  and  _283
REMARK  121  A    between atoms: _283  and  _284
REMARK  122  A    between atoms: _283  and  _286
REMARK  123  A    between atoms: _286  and  _287
REMARK  124  A    between atoms: _290  and  _292
REMARK  125  A    between atoms: _292  and  _293
REMARK  126  A    between atoms: _292  and  _295
REMARK  127  A    between atoms: _295  and  _296
REMARK  128  A    between atoms: _299  and  _301
REMARK  129  A    between atoms: _301  and  _302
REMARK  130  A    between atoms: _304  and  _306
REMARK  131  A    between atoms: _306  and  _307
REMARK  132  A    between atoms: _306  and  _309
REMARK  133  A    between atoms: _309  and  _310
REMARK  134  A    between atoms: _313  and  _315
REMARK  135  A    between atoms: _315  and  _316
REMARK  136  A    between atoms: _315  and  _318
REMARK  137  A    between atoms: _318  and  _319
REMARK  138  A    between atoms: _322  and  _324
REMARK  139  A    between atoms: _324  and  _325
REMARK  140  A    between atoms: _328  and  _330
REMARK  141  A    between atoms: _330  and  _331
REMARK  142  A    between atoms: _330  and  _333
REMARK  143  A    between atoms: _333  and  _334
REMARK  144  A    between atoms: _337  and  _339
REMARK  145  A    between atoms: _339  and  _340
REMARK  146  A    between atoms: _339  and  _342
REMARK  147  A    between atoms: _342  and  _343
REMARK  148  A    between atoms: _348  and  _350
REMARK  149  A    between atoms: _350  and  _351
REMARK  150  A    between atoms: _350  and  _353
REMARK  151  A    between atoms: _353  and  _354
REMARK  152  A    between atoms: _357  and  _359
REMARK  153  A    between atoms: _359  and  _360
REMARK  154  A    between atoms: _359  and  _362
REMARK  155  A    between atoms: _362  and  _363
REMARK  156  A    between atoms: _363  and  _364
REMARK  157  A    between atoms: _369  and  _371
REMARK  158  A    between atoms: _371  and  _372
REMARK  159  A    between atoms: _374  and  _376
REMARK  160  A    between atoms: _376  and  _377
REMARK  161  A    between atoms: _376  and  _379
REMARK  162  A    between atoms: _379  and  _380
REMARK  163  A    between atoms: _386  and  _388
REMARK  164  A    between atoms: _388  and  _389
REMARK  165  A    between atoms: _388  and  _391
REMARK  166  A    between atoms: _391  and  _392
REMARK  167  A    between atoms: _395  and  _397
REMARK  168  A    between atoms: _397  and  _398
REMARK  169  A    between atoms: _401  and  _403
REMARK  170  A    between atoms: _403  and  _404
REMARK  171  A    between atoms: _403  and  _406
REMARK  172  A    between atoms: _406  and  _407
REMARK  173  A    between atoms: _410  and  _412
REMARK  174  A    between atoms: _412  and  _413
REMARK  175  A    between atoms: _412  and  _415
REMARK  176  A    between atoms: _415  and  _416
REMARK  177  A    between atoms: _419  and  _421
REMARK  178  A    between atoms: _421  and  _422
REMARK  179  A    between atoms: _424  and  _426
REMARK  180  A    between atoms: _426  and  _427
REMARK  181  A    between atoms: _426  and  _429
REMARK  182  A    between atoms: _429  and  _430
REMARK  183  A    between atoms: _433  and  _435
REMARK  184  A    between atoms: _435  and  _436
REMARK  185  A    between atoms: _435  and  _438
REMARK  186  A    between atoms: _438  and  _439
REMARK  187  A    between atoms: _442  and  _444
REMARK  188  A    between atoms: _444  and  _445
REMARK  189  A    between atoms: _444  and  _447
REMARK  190  A    between atoms: _447  and  _448
REMARK  191  A    between atoms: _451  and  _453
REMARK  192  A    between atoms: _453  and  _454
REMARK  193  A    between atoms: _453  and  _456
REMARK  194  A    between atoms: _456  and  _457
REMARK  195  A    between atoms: _460  and  _462
REMARK  196  A    between atoms: _462  and  _463
REMARK  197  A    between atoms: _462  and  _465
REMARK  198  A    between atoms: _465  and  _466
REMARK  199  A    between atoms: _471  and  _472
REMARK  200  A    between atoms: _474  and  _476
REMARK  201  A    between atoms: _476  and  _477
REMARK  202  A    between atoms: _476  and  _479
REMARK  203  A    between atoms: _482  and  _484
REMARK  204  A    between atoms: _484  and  _485
REMARK  205  A    between atoms: _487  and  _489
REMARK  206  A    between atoms: _489  and  _490
REMARK  207  A    between atoms: _489  and  _492
REMARK  208  A    between atoms: _492  and  _493
REMARK  209  A    between atoms: _499  and  _501
REMARK  210  A    between atoms: _501  and  _502
REMARK  211  A    between atoms: _504  and  _506
REMARK  212  A    between atoms: _506  and  _507
REMARK  213  A    between atoms: _506  and  _509
REMARK  214  A    between atoms: _509  and  _510
REMARK  215  A    between atoms: _516  and  _518
REMARK  216  A    between atoms: _518  and  _519
REMARK  217  A    between atoms: _521  and  _523
REMARK  218  A    between atoms: _523  and  _524
REMARK  219  A    between atoms: _526  and  _528
REMARK  220  A    between atoms: _528  and  _529
REMARK  221  A    between atoms: _528  and  _531
REMARK  222  A    between atoms: _531  and  _532
REMARK  223  A    between atoms: _532  and  _533
REMARK  224  A    between atoms: _538  and  _540
REMARK  225  A    between atoms: _540  and  _541
REMARK  226  A    between atoms: _543  and  _545
REMARK  227  A    between atoms: _545  and  _546
REMARK  228  A    between atoms: _545  and  _548
REMARK  229  A    between atoms: _548  and  _549
REMARK  230  A    between atoms: _552  and  _554
REMARK  231  A    between atoms: _554  and  _555
REMARK  232  A    between atoms: _557  and  _559
REMARK  233  A    between atoms: _559  and  _560
REMARK  234  A    between atoms: _559  and  _562
REMARK  235  A    between atoms: _562  and  _563
REMARK  236  A    between atoms: _566  and  _568
REMARK  237  A    between atoms: _568  and  _569
REMARK  238  A    between atoms: _568  and  _571
REMARK  239  A    between atoms: _571  and  _572
REMARK  240  A    between atoms: _577  and  _579
REMARK  241  A    between atoms: _579  and  _580
REMARK  242  A    between atoms: _579  and  _582
REMARK  243  A    between atoms: _582  and  _583
REMARK  244  A    between atoms: _586  and  _588
REMARK  245  A    between atoms: _588  and  _589
REMARK  246  A    between atoms: _591  and  _593
REMARK  247  A    between atoms: _593  and  _594
REMARK  248  A    between atoms: _593  and  _596
REMARK  249  A    between atoms: _596  and  _597
REMARK  250  A    between atoms: _600  and  _602
REMARK  251  A    between atoms: _602  and  _603
REMARK  252  A    between atoms: _602  and  _605
REMARK                            x       y       z     vdW  Elec       q    Type
REMARK                         _______ _______ _______ _____ _____    ______ ____
ROOT
ATOM      1  CG  TRP A   1      13.398  40.138  17.693  0.00  0.00    -0.002 A 
ATOM      2  CD2 TRP A   1      13.351  39.495  18.971  0.00  0.00    +0.013 A 
ATOM      3  CE3 TRP A   1      14.176  39.496  20.097  0.00  0.00    +0.001 A 
ATOM      4  CZ3 TRP A   1      13.830  38.739  21.197  0.00  0.00    +0.000 A 
ATOM      5  CH2 TRP A   1      12.658  37.965  21.208  0.00  0.00    +0.001 A 
ATOM      6  CZ2 TRP A   1      11.822  37.938  20.124  0.00  0.00    +0.017 A 
ATOM      7  CE2 TRP A   1      12.183  38.707  19.016  0.00  0.00    +0.056 A 
ATOM      8  NE1 TRP A   1      11.543  38.864  17.816  0.00  0.00    -0.352 N 
ATOM      9  HE1 TRP A   1      10.649  38.409  17.542  0.00  0.00    +0.166 HD
ATOM     10  CD1 TRP A   1      12.277  39.721  17.033  0.00  0.00    +0.068 A 
ENDROOT
BRANCH   1  11
ATOM     11  CB  TRP A   1      14.422  41.077  17.141  0.00  0.00    +0.053 C 
BRANCH  11  12
ATOM     12  CA  TRP A   1      15.672  40.482  16.510  0.00  0.00    +0.137 C 
BRANCH  12  13
ATOM     13  N   TRP A   1      15.397  39.940  15.172  0.00  0.00    -0.239 NA
ATOM     14  H   TRP A   1      14.833  39.076  15.044  0.00  0.00    +0.142 HD
ENDBRANCH  12  13
BRANCH  12  15
ATOM     15  C   TRP A   1      16.276  39.414  17.409  0.00  0.00    +0.224 C 
ATOM     16  O   TRP A   1      16.072  38.219  17.195  0.00  0.00    -0.287 OA
ENDBRANCH  12  15
ENDBRANCH  11  12
ENDBRANCH   1  11
TORSDOF 4
REMARK  Name = ../refined-set-2016/3uri/3uri_pocket.pdb
REMARK  252 active torsions:
REMARK  status: ('A' for Active; 'I' for Inactive)
REMARK    1  A    between atoms: _1  and  _3
REMARK    2  A    between atoms: _3  and  _4
REMARK    3  A    between atoms: _3  and  _6
REMARK    4  A    between atoms: _6  and  _7
REMARK    5  A    between atoms: _10  and  _12
REMARK    6  A    between atoms: _12  and  _13
REMARK    7  A    between atoms: _12  and  _15
REMARK    8  A    between atoms: _15  and  _16
REMARK    9  A    between atoms: _19  and  _21
REMARK   10  A    between atoms: _21  and  _22
REMARK   11  A    between atoms: _21  and  _24
REMARK   12  A    between atoms: _24  and  _25
REMARK   13  A    between atoms: _28  and  _30
REMARK   14  A    between atoms: _30  and  _31
REMARK   15  A    between atoms: _30  and  _33
REMARK   16  A    between atoms: _33  and  _34
REMARK   17  A    between atoms: _37  and  _39
REMARK   18  A    between atoms: _39  and  _40
REMARK   19  A    between atoms: _39  and  _42
REMARK   20  A    between atoms: _42  and  _43
REMARK   21  A    between atoms: _46  and  _48
REMARK   22  A    between atoms: _48  and  _49
REMARK   23  A    between atoms: _52  and  _54
REMARK   24  A    between atoms: _54  and  _55
REMARK   25  A    between atoms: _54  and  _57
REMARK   26  A    between atoms: _57  and  _58
REMARK   27  A    between atoms: _63  and  _64
REMARK   28  A    between atoms: _66  and  _68
REMARK   29  A    between atoms: _68  and  _69
REMARK   30  A    between atoms: _68  and  _71
REMARK   31  A    between atoms: _71  and  _72
REMARK   32  A    between atoms: _75  and  _77
REMARK   33  A    between atoms: _77  and  _78
REMARK   34  A    between atoms: _77  and  _80
REMARK   35  A    between atoms: _80  and  _81
REMARK   36  A    between atoms: _84  and  _86
REMARK   37  A    between atoms: _86  and  _87
REMARK   38  A    between atoms: _86  and  _89
REMARK   39  A    between atoms: _89  and  _90
REMARK   40  A    between atoms: _96  and  _98
REMARK   41  A    between atoms: _98  and  _99
REMARK   42  A    between atoms: _98  and  _101
REMARK   43  A    between atoms: _101  and  _102
REMARK   44  A    between atoms: _105  and  _107
REMARK   45  A    between atoms: _107  and  _108
REMARK   46  A    between atoms: _107  and  _110
REMARK   47  A    between atoms: _110  and  _111
REMARK   48  A    between atoms: _114  and  _116
REMARK   49  A    between atoms: _116  and  _117
REMARK   50  A    between atoms: _119  and  _121
REMARK   51  A    between atoms: _121  and  _122
REMARK   52  A    between atoms: _121  and  _124
REMARK   53  A    between atoms: _124  and  _125
REMARK   54  A    between atoms: _127  and  _129
REMARK   55  A    between atoms: _129  and  _130
REMARK   56  A    between atoms: _129  and  _132
REMARK   57  A    between atoms: _132  and  _133
REMARK   58  A    between atoms: _135  and  _137
REMARK   59  A    between atoms: _137  and  _138
REMARK   60  A    between atoms: _137  and  _140
REMARK   61  A    between atoms: _140  and  _141
REMARK   62  A    between atoms: _144  and  _146
REMARK   63  A    between atoms: _146  and  _147
REMARK   64  A    between atoms: _146  and  _149
REMARK   65  A    between atoms: _149  and  _150
REMARK   66  A    between atoms: _160  and  _162
REMARK   67  A    between atoms: _162  and  _163
REMARK   68  A    between atoms: _162  and  _165
REMARK   69  A    between atoms: _165  and  _166
REMARK   70  A    between atoms: _168  and  _170
REMARK   71  A    between atoms: _170  and  _171
REMARK   72  A    between atoms: _170  and  _173
REMARK   73  A    between atoms: _173  and  _174
REMARK   74  A    between atoms: _177  and  _179
REMARK   75  A    between atoms: _179  and  _180
REMARK   76  A    between atoms: _179  and  _182
REMARK   77  A    between atoms: _182  and  _183
REMARK   78  A    between atoms: _185  and  _187
REMARK   79  A    between atoms: _187  and  _188
REMARK   80  A    between atoms: _187  and  _190
REMARK   81  A    between atoms: _190  and  _191
REMARK   82  A    between atoms: _196  and  _197
REMARK   83  A    between atoms: _199  and  _201
REMARK   84  A    between atoms: _201  and  _202
REMARK   85  A    between atoms: _204  and  _206
REMARK   86  A    between atoms: _206  and  _207
REMARK   87  A    between atoms: _206  and  _209
REMARK   88  A    between atoms: _209  and  _210
REMARK   89  A    between atoms: _213  and  _215
REMARK   90  A    between atoms: _215  and  _216
REMARK   91  A    between atoms: _218  and  _220
REMARK   92  A    between atoms: _220  and  _221
REMARK   93  A    between atoms: _220  and  _223
REMARK   94  A    between atoms: _223  and  _224
REMARK   95  A    between atoms: _226  and  _228
REMARK   96  A    between atoms: _228  and  _229
REMARK   97  A    between atoms: _228  and  _231
REMARK   98  A    between atoms: _231  and  _232
REMARK   99  A    between atoms: _234  and  _236
REMARK  100  A    between atoms: _236  and  _237
REMARK  101  A    between atoms: _236  and  _239
REMARK  102  A    between atoms: _239  and  _240
REMARK  103  A    between atoms: _242  and  _244
REMARK  104  A    between atoms: _244  and  _245
REMARK  105  A    between atoms: _244  and  _247
REMARK  106  A    between atoms: _247  and  _248
REMARK  107  A    between atoms: _250  and  _252
REMARK  108  A    between atoms: _252  and  _253
REMARK  109  A    between atoms: _252  and  _255
REMARK  110  A    between atoms: _255  and  _256
REMARK  111  A    between atoms: _262  and  _264
REMARK  112  A    between atoms: _264  and  _265
REMARK  113  A    between atoms: _264  and  _267
REMARK  114  A    between atoms: _267  and  _268
REMARK  115  A    between atoms: _268  and  _269
REMARK  116  A    between atoms: _272  and  _274
REMARK  117  A    between atoms: _274  and  _275
REMARK  118  A    between atoms: _274  and  _277
REMARK  119  A    between atoms: _277  and  _278
REMARK  120  A    between atoms: _281  and  _283
REMARK  121  A    between atoms: _283  and  _284
REMARK  122  A    between atoms: _283  and  _286
REMARK  123  A    between atoms: _286  and  _287
REMARK  124  A    between atoms: _290  and  _292
REMARK  125  A    between atoms: _292  and  _293
REMARK  126  A    between atoms: _292  and  _295
REMARK  127  A    between atoms: _295  and  _296
REMARK  128  A    between atoms: _299  and  _301
REMARK  129  A    between atoms: _301  and  _302
REMARK  130  A    between atoms: _304  and  _306
REMARK  131  A    between atoms: _306  and  _307
REMARK  132  A    between atoms: _306  and  _309
REMARK  133  A    between atoms: _309  and  _310
REMARK  134  A    between atoms: _313  and  _315
REMARK  135  A    between atoms: _315  and  _316
REMARK  136  A    between atoms: _315  and  _318
REMARK  137  A    between atoms: _318  and  _319
REMARK  138  A    between atoms: _322  and  _324
REMARK  139  A    between atoms: _324  and  _325
REMARK  140  A    between atoms: _328  and  _330
REMARK  141  A    between atoms: _330  and  _331
REMARK  142  A    between atoms: _330  and  _333
REMARK  143  A    between atoms: _333  and  _334
REMARK  144  A    between atoms: _337  and  _339
REMARK  145  A    between atoms: _339  and  _340
REMARK  146  A    between atoms: _339  and  _342
REMARK  147  A    between atoms: _342  and  _343
REMARK  148  A    between atoms: _348  and  _350
REMARK  149  A    between atoms: _350  and  _351
REMARK  150  A    between atoms: _350  and  _353
REMARK  151  A    between atoms: _353  and  _354
REMARK  152  A    between atoms: _357  and  _359
REMARK  153  A    between atoms: _359  and  _360
REMARK  154  A    between atoms: _359  and  _362
REMARK  155  A    between atoms: _362  and  _363
REMARK  156  A    between atoms: _363  and  _364
REMARK  157  A    between atoms: _369  and  _371
REMARK  158  A    between atoms: _371  and  _372
REMARK  159  A    between atoms: _374  and  _376
REMARK  160  A    between atoms: _376  and  _377
REMARK  161  A    between atoms: _376  and  _379
REMARK  162  A    between atoms: _379  and  _380
REMARK  163  A    between atoms: _386  and  _388
REMARK  164  A    between atoms: _388  and  _389
REMARK  165  A    between atoms: _388  and  _391
REMARK  166  A    between atoms: _391  and  _392
REMARK  167  A    between atoms: _395  and  _397
REMARK  168  A    between atoms: _397  and  _398
REMARK  169  A    between atoms: _401  and  _403
REMARK  170  A    between atoms: _403  and  _404
REMARK  171  A    between atoms: _403  and  _406
REMARK  172  A    between atoms: _406  and  _407
REMARK  173  A    between atoms: _410  and  _412
REMARK  174  A    between atoms: _412  and  _413
REMARK  175  A    between atoms: _412  and  _415
REMARK  176  A    between atoms: _415  and  _416
REMARK  177  A    between atoms: _419  and  _421
REMARK  178  A    between atoms: _421  and  _422
REMARK  179  A    between atoms: _424  and  _426
REMARK  180  A    between atoms: _426  and  _427
REMARK  181  A    between atoms: _426  and  _429
REMARK  182  A    between atoms: _429  and  _430
REMARK  183  A    between atoms: _433  and  _435
REMARK  184  A    between atoms: _435  and  _436
REMARK  185  A    between atoms: _435  and  _438
REMARK  186  A    between atoms: _438  and  _439
REMARK  187  A    between atoms: _442  and  _444
REMARK  188  A    between atoms: _444  and  _445
REMARK  189  A    between atoms: _444  and  _447
REMARK  190  A    between atoms: _447  and  _448
REMARK  191  A    between atoms: _451  and  _453
REMARK  192  A    between atoms: _453  and  _454
REMARK  193  A    between atoms: _453  and  _456
REMARK  194  A    between atoms: _456  and  _457
REMARK  195  A    between atoms: _460  and  _462
REMARK  196  A    between atoms: _462  and  _463
REMARK  197  A    between atoms: _462  and  _465
REMARK  198  A    between atoms: _465  and  _466
REMARK  199  A    between atoms: _471  and  _472
REMARK  200  A    between atoms: _474  and  _476
REMARK  201  A    between atoms: _476  and  _477
REMARK  202  A    between atoms: _476  and  _479
REMARK  203  A    between atoms: _482  and  _484
REMARK  204  A    between atoms: _484  and  _485
REMARK  205  A    between atoms: _487  and  _489
REMARK  206  A    between atoms: _489  and  _490
REMARK  207  A    between atoms: _489  and  _492
REMARK  208  A    between atoms: _492  and  _493
REMARK  209  A    between atoms: _499  and  _501
REMARK  210  A    between atoms: _501  and  _502
REMARK  211  A    between atoms: _504  and  _506
REMARK  212  A    between atoms: _506  and  _507
REMARK  213  A    between atoms: _506  and  _509
REMARK  214  A    between atoms: _509  and  _510
REMARK  215  A    between atoms: _516  and  _518
REMARK  216  A    between atoms: _518  and  _519
REMARK  217  A    between atoms: _521  and  _523
REMARK  218  A    between atoms: _523  and  _524
REMARK  219  A    between atoms: _526  and  _528
REMARK  220  A    between atoms: _528  and  _529
REMARK  221  A    between atoms: _528  and  _531
REMARK  222  A    between atoms: _531  and  _532
REMARK  223  A    between atoms: _532  and  _533
REMARK  224  A    between atoms: _538  and  _540
REMARK  225  A    between atoms: _540  and  _541
REMARK  226  A    between atoms: _543  and  _545
REMARK  227  A    between atoms: _545  and  _546
REMARK  228  A    between atoms: _545  and  _548
REMARK  229  A    between atoms: _548  and  _549
REMARK  230  A    between atoms: _552  and  _554
REMARK  231  A    between atoms: _554  and  _555
REMARK  232  A    between atoms: _557  and  _559
REMARK  233  A    between atoms: _559  and  _560
REMARK  234  A    between atoms: _559  and  _562
REMARK  235  A    between atoms: _562  and  _563
REMARK  236  A    between atoms: _566  and  _568
REMARK  237  A    between atoms: _568  and  _569
REMARK  238  A    between atoms: _568  and  _571
REMARK  239  A    between atoms: _571  and  _572
REMARK  240  A    between atoms: _577  and  _579
REMARK  241  A    between atoms: _579  and  _580
REMARK  242  A    between atoms: _579  and  _582
REMARK  243  A    between atoms: _582  and  _583
REMARK  244  A    between atoms: _586  and  _588
REMARK  245  A    between atoms: _588  and  _589
REMARK  246  A    between atoms: _591  and  _593
REMARK  247  A    between atoms: _593  and  _594
REMARK  248  A    between atoms: _593  and  _596
REMARK  249  A    between atoms: _596  and  _597
REMARK  250  A    between atoms: _600  and  _602
REMARK  251  A    between atoms: _602  and  _603
REMARK  252  A    between atoms: _602  and  _605
REMARK                            x       y       z     vdW  Elec       q    Type
REMARK                         _______ _______ _______ _____ _____    ______ ____
ROOT
ATOM      1  CA  TYR A   4       3.187  37.541  16.936  0.00  0.00    +0.153 C 
ENDROOT
BRANCH   1   2
ATOM      2  C   TYR A   4       1.817  36.909  17.179  0.00  0.00    +0.241 C 
ATOM      3  O   TYR A   4       1.103  37.318  18.092  0.00  0.00    -0.273 OA
ATOM      4  N   GLY A   5       1.464  35.933  16.358  0.00  0.00    -0.295 N 
ATOM      5  H   GLY A   5       2.194  35.608  15.693  0.00  0.00    +0.150 HD
BRANCH   4   6
ATOM      6  CA  GLY A   5       0.192  35.269  16.276  0.00  0.00    +0.176 C 
BRANCH   6   7
ATOM      7  C   GLY A   5      -0.373  34.819  17.609  0.00  0.00    +0.243 C 
ATOM      8  N   ASP A   6       0.482  34.474  18.563  0.00  0.00    -0.296 N 
ATOM      9  H   ASP A   6       1.496  34.582  18.361  0.00  0.00    +0.150 HD
ATOM     10  O   GLY A   5      -1.598  34.799  17.747  0.00  0.00    -0.273 OA
BRANCH   8  11
ATOM     11  CA  ASP A   6       0.109  33.957  19.868  0.00  0.00    +0.160 C 
BRANCH  11  12
ATOM     12  C   ASP A   6       0.127  34.995  20.981  0.00  0.00    +0.241 C 
ATOM     13  O   ASP A   6       0.030  34.618  22.155  0.00  0.00    -0.273 OA
ATOM     14  N   GLY A   7       0.256  36.276  20.652  0.00  0.00    -0.295 N 
ATOM     15  H   GLY A   7       0.355  36.547  19.653  0.00  0.00    +0.150 HD
BRANCH  14  16
ATOM     16  CA  GLY A   7       0.259  37.298  21.683  0.00  0.00    +0.176 C 
BRANCH  16  17
ATOM     17  C   GLY A   7       1.640  37.754  22.110  0.00  0.00    +0.243 C 
ATOM     18  O   GLY A   7       1.808  38.879  22.587  0.00  0.00    -0.273 OA
ATOM     19  N   SER A   8       2.653  36.913  21.948  0.00  0.00    -0.295 N 
ATOM     20  H   SER A   8       2.476  35.986  21.512  0.00  0.00    +0.150 HD
BRANCH  19  21
ATOM     21  CA  SER A   8       4.009  37.255  22.366  0.00  0.00    +0.178 C 
BRANCH  21  22
ATOM     22  C   SER A   8       4.525  38.468  21.606  0.00  0.00    +0.243 C 
ATOM     23  N   SER A   9       5.357  39.277  22.261  0.00  0.00    -0.296 N 
ATOM     24  H   SER A   9       5.662  39.038  23.226  0.00  0.00    +0.150 HD
ATOM     25  O   SER A   8       4.184  38.694  20.441  0.00  0.00    -0.273 OA
BRANCH  23  26
ATOM     26  CA  SER A   9       5.840  40.496  21.627  0.00  0.00    +0.166 C 
BRANCH  26  27
ATOM     27  CB  SER A   9       7.162  40.962  22.227  0.00  0.00    +0.229 C 
ATOM     28  OG  SER A   9       7.585  40.451  23.261  0.00  0.00    -0.286 OA
ENDBRANCH  26  27
BRANCH  26  29
ATOM     29  C   SER A   9       4.808  41.621  21.778  0.00  0.00    +0.165 C 
BRANCH  29  30
ATOM     30  O   SER A   9       4.801  42.086  23.117  0.00  0.00    -0.380 OA
ATOM     31  H   SER A   9       4.565  41.340  23.723  0.00  0.00    +0.211 HD
ENDBRANCH  29  30
ENDBRANCH  26  29
ENDBRANCH  23  26
ENDBRANCH  21  22
BRANCH  21  32
ATOM     32  CB  SER A   8       4.940  36.057  22.169  0.00  0.00    +0.166 C 
BRANCH  32  33
ATOM     33  OG  SER A   8       5.053  35.702  20.804  0.00  0.00    -0.380 OA
ATOM     34  H   SER A   8       4.159  35.464  20.451  0.00  0.00    +0.211 HD
ENDBRANCH  32  33
ENDBRANCH  21  32
ENDBRANCH  19  21
ENDBRANCH  16  17
ENDBRANCH  14  16
ENDBRANCH  11  12
BRANCH  11  35
ATOM     35  CB  ASP A   6       1.066  32.823  20.285  0.00  0.00    +0.143 C 
BRANCH  35  36
ATOM     36  CG  ASP A   6       2.510  33.283  20.209  0.00  0.00    +0.367 C 
ATOM     37  OD2 ASP A   6       2.851  34.270  20.892  0.00  0.00    -0.246 OA
ATOM     38  OD1 ASP A   6       3.294  32.661  19.465  0.00  0.00    -0.246 OA
ENDBRANCH  35  36
ENDBRANCH  11  35
ENDBRANCH   8  11
ENDBRANCH   6   7
ENDBRANCH   4   6
ENDBRANCH   1   2
BRANCH   1  40
ATOM     39  C   SER A   3       3.319  39.922  17.325  0.00  0.00    +0.243 C 
ATOM     40  N   TYR A   4       3.387  38.686  17.824  0.00  0.00    -0.297 N 
ATOM     41  H   TYR A   4       3.580  38.538  18.835  0.00  0.00    +0.150 HD
ATOM     42  O   SER A   3       3.048  40.135  16.145  0.00  0.00    -0.273 OA
BRANCH  39  43
ATOM     43  CA  SER A   3       3.610  41.060  18.298  0.00  0.00    +0.178 C 
BRANCH  43  46
ATOM     44  C   ILE A   2       5.527  42.513  18.131  0.00  0.00    +0.241 C 
ATOM     45  O   ILE A   2       5.888  42.184  19.262  0.00  0.00    -0.273 OA
ATOM     46  N   SER A   3       4.359  42.114  17.611  0.00  0.00    -0.295 N 
ATOM     47  H   SER A   3       3.992  42.544  16.738  0.00  0.00    +0.150 HD
BRANCH  44  48
ATOM     48  CA  ILE A   2       6.419  43.388  17.272  0.00  0.00    +0.148 C 
BRANCH  48  50
ATOM     49  C   SER A   1       7.080  45.663  17.541  0.00  0.00    +0.241 C 
ATOM     50  N   ILE A   2       7.106  44.426  18.051  0.00  0.00    -0.297 N 
ATOM     51  H   ILE A   2       7.586  44.212  18.949  0.00  0.00    +0.150 HD
ATOM     52  O   SER A   1       6.486  45.929  16.488  0.00  0.00    -0.274 OA
BRANCH  49  53
ATOM     53  CA  SER A   1       7.839  46.741  18.296  0.00  0.00    +0.174 C 
BRANCH  53  54
ATOM     54  N   SER A   1       8.814  47.332  17.386  0.00  0.00    -0.236 NA
ATOM     55  H   SER A   1       8.615  47.270  16.367  0.00  0.00    +0.142 HD
ENDBRANCH  53  54
BRANCH  53  56
ATOM     56  CB  SER A   1       6.922  47.821  18.855  0.00  0.00    +0.163 C 
BRANCH  56  57
ATOM     57  OG  SER A   1       5.676  47.346  19.316  0.00  0.00    -0.380 OA
ATOM     58  H   SER A   1       5.823  46.687  20.040  0.00  0.00    +0.211 HD
ENDBRANCH  56  57
ENDBRANCH  53  56
ENDBRANCH  49  53
ENDBRANCH  48  50
BRANCH  48  59
ATOM     59  CB  ILE A   2       7.457  42.509  16.546  0.00  0.00    +0.027 C 
ATOM     60  CG2 ILE A   2       7.886  41.357  17.440  0.00  0.00    +0.002 C 
BRANCH  59  61
ATOM     61  CG1 ILE A   2       7.002  41.991  15.184  0.00  0.00    +0.002 C 
ATOM     62  CD1 ILE A   2       8.129  41.382  14.369  0.00  0.00    +0.000 C 
ENDBRANCH  59  61
ENDBRANCH  48  59
ENDBRANCH  44  48
ENDBRANCH  43  46
BRANCH  43  63
ATOM     63  CB  SER A   3       2.320  41.574  18.931  0.00  0.00    +0.166 C 
BRANCH  63  64
ATOM     64  OG  SER A   3       1.457  42.109  17.940  0.00  0.00    -0.380 OA
ATOM     65  H   SER A   3       1.910  42.859  17.479  0.00  0.00    +0.211 HD
ENDBRANCH  63  64
ENDBRANCH  43  63
ENDBRANCH  39  43
ENDBRANCH   1  40
BRANCH   1  66
ATOM     66  CB  TYR A   4       4.318  36.532  17.109  0.00  0.00    +0.055 C 
BRANCH  66  67
ATOM     67  CG  TYR A   4       5.688  37.059  16.745  0.00  0.00    -0.020 A 
ATOM     68  CD2 TYR A   4       6.619  37.374  17.729  0.00  0.00    -0.001 A 
ATOM     69  CE2 TYR A   4       7.867  37.853  17.389  0.00  0.00    +0.036 A 
ATOM     70  CZ  TYR A   4       8.232  38.035  16.074  0.00  0.00    +0.134 A 
ATOM     71  CE1 TYR A   4       7.331  37.730  15.077  0.00  0.00    +0.036 A 
ATOM     72  CD1 TYR A   4       6.079  37.248  15.428  0.00  0.00    -0.001 A 
BRANCH  70  73
ATOM     73  OH  TYR A   4       9.492  38.518  15.769  0.00  0.00    -0.506 OA
ATOM     74  HH  TYR A   4       9.974  37.853  15.216  0.00  0.00    +0.292 HD
ENDBRANCH  70  73
ENDBRANCH  66  67
ENDBRANCH   1  66
TORSDOF 33
REMARK  Name = ../refined-set-2016/3uri/3uri_pocket.pdb
REMARK  252 active torsions:
REMARK  status: ('A' for Active; 'I' for Inactive)
REMARK    1  A    between atoms: _1  and  _3
REMARK    2  A    between atoms: _3  and  _4
REMARK    3  A    between atoms: _3  and  _6
REMARK    4  A    between atoms: _6  and  _7
REMARK    5  A    between atoms: _10  and  _12
REMARK    6  A    between atoms: _12  and  _13
REMARK    7  A    between atoms: _12  and  _15
REMARK    8  A    between atoms: _15  and  _16
REMARK    9  A    between atoms: _19  and  _21
REMARK   10  A    between atoms: _21  and  _22
REMARK   11  A    between atoms: _21  and  _24
REMARK   12  A    between atoms: _24  and  _25
REMARK   13  A    between atoms: _28  and  _30
REMARK   14  A    between atoms: _30  and  _31
REMARK   15  A    between atoms: _30  and  _33
REMARK   16  A    between atoms: _33  and  _34
REMARK   17  A    between atoms: _37  and  _39
REMARK   18  A    between atoms: _39  and  _40
REMARK   19  A    between atoms: _39  and  _42
REMARK   20  A    between atoms: _42  and  _43
REMARK   21  A    between atoms: _46  and  _48
REMARK   22  A    between atoms: _48  and  _49
REMARK   23  A    between atoms: _52  and  _54
REMARK   24  A    between atoms: _54  and  _55
REMARK   25  A    between atoms: _54  and  _57
REMARK   26  A    between atoms: _57  and  _58
REMARK   27  A    between atoms: _63  and  _64
REMARK   28  A    between atoms: _66  and  _68
REMARK   29  A    between atoms: _68  and  _69
REMARK   30  A    between atoms: _68  and  _71
REMARK   31  A    between atoms: _71  and  _72
REMARK   32  A    between atoms: _75  and  _77
REMARK   33  A    between atoms: _77  and  _78
REMARK   34  A    between atoms: _77  and  _80
REMARK   35  A    between atoms: _80  and  _81
REMARK   36  A    between atoms: _84  and  _86
REMARK   37  A    between atoms: _86  and  _87
REMARK   38  A    between atoms: _86  and  _89
REMARK   39  A    between atoms: _89  and  _90
REMARK   40  A    between atoms: _96  and  _98
REMARK   41  A    between atoms: _98  and  _99
REMARK   42  A    between atoms: _98  and  _101
REMARK   43  A    between atoms: _101  and  _102
REMARK   44  A    between atoms: _105  and  _107
REMARK   45  A    between atoms: _107  and  _108
REMARK   46  A    between atoms: _107  and  _110
REMARK   47  A    between atoms: _110  and  _111
REMARK   48  A    between atoms: _114  and  _116
REMARK   49  A    between atoms: _116  and  _117
REMARK   50  A    between atoms: _119  and  _121
REMARK   51  A    between atoms: _121  and  _122
REMARK   52  A    between atoms: _121  and  _124
REMARK   53  A    between atoms: _124  and  _125
REMARK   54  A    between atoms: _127  and  _129
REMARK   55  A    between atoms: _129  and  _130
REMARK   56  A    between atoms: _129  and  _132
REMARK   57  A    between atoms: _132  and  _133
REMARK   58  A    between atoms: _135  and  _137
REMARK   59  A    between atoms: _137  and  _138
REMARK   60  A    between atoms: _137  and  _140
REMARK   61  A    between atoms: _140  and  _141
REMARK   62  A    between atoms: _144  and  _146
REMARK   63  A    between atoms: _146  and  _147
REMARK   64  A    between atoms: _146  and  _149
REMARK   65  A    between atoms: _149  and  _150
REMARK   66  A    between atoms: _160  and  _162
REMARK   67  A    between atoms: _162  and  _163
REMARK   68  A    between atoms: _162  and  _165
REMARK   69  A    between atoms: _165  and  _166
REMARK   70  A    between atoms: _168  and  _170
REMARK   71  A    between atoms: _170  and  _171
REMARK   72  A    between atoms: _170  and  _173
REMARK   73  A    between atoms: _173  and  _174
REMARK   74  A    between atoms: _177  and  _179
REMARK   75  A    between atoms: _179  and  _180
REMARK   76  A    between atoms: _179  and  _182
REMARK   77  A    between atoms: _182  and  _183
REMARK   78  A    between atoms: _185  and  _187
REMARK   79  A    between atoms: _187  and  _188
REMARK   80  A    between atoms: _187  and  _190
REMARK   81  A    between atoms: _190  and  _191
REMARK   82  A    between atoms: _196  and  _197
REMARK   83  A    between atoms: _199  and  _201
REMARK   84  A    between atoms: _201  and  _202
REMARK   85  A    between atoms: _204  and  _206
REMARK   86  A    between atoms: _206  and  _207
REMARK   87  A    between atoms: _206  and  _209
REMARK   88  A    between atoms: _209  and  _210
REMARK   89  A    between atoms: _213  and  _215
REMARK   90  A    between atoms: _215  and  _216
REMARK   91  A    between atoms: _218  and  _220
REMARK   92  A    between atoms: _220  and  _221
REMARK   93  A    between atoms: _220  and  _223
REMARK   94  A    between atoms: _223  and  _224
REMARK   95  A    between atoms: _226  and  _228
REMARK   96  A    between atoms: _228  and  _229
REMARK   97  A    between atoms: _228  and  _231
REMARK   98  A    between atoms: _231  and  _232
REMARK   99  A    between atoms: _234  and  _236
REMARK  100  A    between atoms: _236  and  _237
REMARK  101  A    between atoms: _236  and  _239
REMARK  102  A    between atoms: _239  and  _240
REMARK  103  A    between atoms: _242  and  _244
REMARK  104  A    between atoms: _244  and  _245
REMARK  105  A    between atoms: _244  and  _247
REMARK  106  A    between atoms: _247  and  _248
REMARK  107  A    between atoms: _250  and  _252
REMARK  108  A    between atoms: _252  and  _253
REMARK  109  A    between atoms: _252  and  _255
REMARK  110  A    between atoms: _255  and  _256
REMARK  111  A    between atoms: _262  and  _264
REMARK  112  A    between atoms: _264  and  _265
REMARK  113  A    between atoms: _264  and  _267
REMARK  114  A    between atoms: _267  and  _268
REMARK  115  A    between atoms: _268  and  _269
REMARK  116  A    between atoms: _272  and  _274
REMARK  117  A    between atoms: _274  and  _275
REMARK  118  A    between atoms: _274  and  _277
REMARK  119  A    between atoms: _277  and  _278
REMARK  120  A    between atoms: _281  and  _283
REMARK  121  A    between atoms: _283  and  _284
REMARK  122  A    between atoms: _283  and  _286
REMARK  123  A    between atoms: _286  and  _287
REMARK  124  A    between atoms: _290  and  _292
REMARK  125  A    between atoms: _292  and  _293
REMARK  126  A    between atoms: _292  and  _295
REMARK  127  A    between atoms: _295  and  _296
REMARK  128  A    between atoms: _299  and  _301
REMARK  129  A    between atoms: _301  and  _302
REMARK  130  A    between atoms: _304  and  _306
REMARK  131  A    between atoms: _306  and  _307
REMARK  132  A    between atoms: _306  and  _309
REMARK  133  A    between atoms: _309  and  _310
REMARK  134  A    between atoms: _313  and  _315
REMARK  135  A    between atoms: _315  and  _316
REMARK  136  A    between atoms: _315  and  _318
REMARK  137  A    between atoms: _318  and  _319
REMARK  138  A    between atoms: _322  and  _324
REMARK  139  A    between atoms: _324  and  _325
REMARK  140  A    between atoms: _328  and  _330
REMARK  141  A    between atoms: _330  and  _331
REMARK  142  A    between atoms: _330  and  _333
REMARK  143  A    between atoms: _333  and  _334
REMARK  144  A    between atoms: _337  and  _339
REMARK  145  A    between atoms: _339  and  _340
REMARK  146  A    between atoms: _339  and  _342
REMARK  147  A    between atoms: _342  and  _343
REMARK  148  A    between atoms: _348  and  _350
REMARK  149  A    between atoms: _350  and  _351
REMARK  150  A    between atoms: _350  and  _353
REMARK  151  A    between atoms: _353  and  _354
REMARK  152  A    between atoms: _357  and  _359
REMARK  153  A    between atoms: _359  and  _360
REMARK  154  A    between atoms: _359  and  _362
REMARK  155  A    between atoms: _362  and  _363
REMARK  156  A    between atoms: _363  and  _364
REMARK  157  A    between atoms: _369  and  _371
REMARK  158  A    between atoms: _371  and  _372
REMARK  159  A    between atoms: _374  and  _376
REMARK  160  A    between atoms: _376  and  _377
REMARK  161  A    between atoms: _376  and  _379
REMARK  162  A    between atoms: _379  and  _380
REMARK  163  A    between atoms: _386  and  _388
REMARK  164  A    between atoms: _388  and  _389
REMARK  165  A    between atoms: _388  and  _391
REMARK  166  A    between atoms: _391  and  _392
REMARK  167  A    between atoms: _395  and  _397
REMARK  168  A    between atoms: _397  and  _398
REMARK  169  A    between atoms: _401  and  _403
REMARK  170  A    between atoms: _403  and  _404
REMARK  171  A    between atoms: _403  and  _406
REMARK  172  A    between atoms: _406  and  _407
REMARK  173  A    between atoms: _410  and  _412
REMARK  174  A    between atoms: _412  and  _413
REMARK  175  A    between atoms: _412  and  _415
REMARK  176  A    between atoms: _415  and  _416
REMARK  177  A    between atoms: _419  and  _421
REMARK  178  A    between atoms: _421  and  _422
REMARK  179  A    between atoms: _424  and  _426
REMARK  180  A    between atoms: _426  and  _427
REMARK  181  A    between atoms: _426  and  _429
REMARK  182  A    between atoms: _429  and  _430
REMARK  183  A    between atoms: _433  and  _435
REMARK  184  A    between atoms: _435  and  _436
REMARK  185  A    between atoms: _435  and  _438
REMARK  186  A    between atoms: _438  and  _439
REMARK  187  A    between atoms: _442  and  _444
REMARK  188  A    between atoms: _444  and  _445
REMARK  189  A    between atoms: _444  and  _447
REMARK  190  A    between atoms: _447  and  _448
REMARK  191  A    between atoms: _451  and  _453
REMARK  192  A    between atoms: _453  and  _454
REMARK  193  A    between atoms: _453  and  _456
REMARK  194  A    between atoms: _456  and  _457
REMARK  195  A    between atoms: _460  and  _462
REMARK  196  A    between atoms: _462  and  _463
REMARK  197  A    between atoms: _462  and  _465
REMARK  198  A    between atoms: _465  and  _466
REMARK  199  A    between atoms: _471  and  _472
REMARK  200  A    between atoms: _474  and  _476
REMARK  201  A    between atoms: _476  and  _477
REMARK  202  A    between atoms: _476  and  _479
REMARK  203  A    between atoms: _482  and  _484
REMARK  204  A    between atoms: _484  and  _485
REMARK  205  A    between atoms: _487  and  _489
REMARK  206  A    between atoms: _489  and  _490
REMARK  207  A    between atoms: _489  and  _492
REMARK  208  A    between atoms: _492  and  _493
REMARK  209  A    between atoms: _499  and  _501
REMARK  210  A    between atoms: _501  and  _502
REMARK  211  A    between atoms: _504  and  _506
REMARK  212  A    between atoms: _506  and  _507
REMARK  213  A    between atoms: _506  and  _509
REMARK  214  A    between atoms: _509  and  _510
REMARK  215  A    between atoms: _516  and  _518
REMARK  216  A    between atoms: _518  and  _519
REMARK  217  A    between atoms: _521  and  _523
REMARK  218  A    between atoms: _523  and  _524
REMARK  219  A    between atoms: _526  and  _528
REMARK  220  A    between atoms: _528  and  _529
REMARK  221  A    between atoms: _528  and  _531
REMARK  222  A    between atoms: _531  and  _532
REMARK  223  A    between atoms: _532  and  _533
REMARK  224  A    between atoms: _538  and  _540
REMARK  225  A    between atoms: _540  and  _541
REMARK  226  A    between atoms: _543  and  _545
REMARK  227  A    between atoms: _545  and  _546
REMARK  228  A    between atoms: _545  and  _548
REMARK  229  A    between atoms: _548  and  _549
REMARK  230  A    between atoms: _552  and  _554
REMARK  231  A    between atoms: _554  and  _555
REMARK  232  A    between atoms: _557  and  _559
REMARK  233  A    between atoms: _559  and  _560
REMARK  234  A    between atoms: _559  and  _562
REMARK  235  A    between atoms: _562  and  _563
REMARK  236  A    between atoms: _566  and  _568
REMARK  237  A    between atoms: _568  and  _569
REMARK  238  A    between atoms: _568  and  _571
REMARK  239  A    between atoms: _571  and  _572
REMARK  240  A    between atoms: _577  and  _579
REMARK  241  A    between atoms: _579  and  _580
REMARK  242  A    between atoms: _579  and  _582
REMARK  243  A    between atoms: _582  and  _583
REMARK  244  A    between atoms: _586  and  _588
REMARK  245  A    between atoms: _588  and  _589
REMARK  246  A    between atoms: _591  and  _593
REMARK  247  A    between atoms: _593  and  _594
REMARK  248  A    between atoms: _593  and  _596
REMARK  249  A    between atoms: _596  and  _597
REMARK  250  A    between atoms: _600  and  _602
REMARK  251  A    between atoms: _602  and  _603
REMARK  252  A    between atoms: _602  and  _605
REMARK                            x       y       z     vdW  Elec       q    Type
REMARK                         _______ _______ _______ _____ _____    ______ ____
ROOT
ATOM      1  CA  SER A   1       7.225  39.051  26.722  0.00  0.00    +0.163 C 
ENDROOT
BRANCH   1   2
ATOM      2  N   SER A   1       8.344  39.598  25.954  0.00  0.00    -0.237 NA
ATOM      3  H   SER A   1       8.342  39.519  24.917  0.00  0.00    +0.142 HD
ENDBRANCH   1   2
BRANCH   1   4
ATOM      4  CB  SER A   1       7.644  37.769  27.432  0.00  0.00    +0.227 C 
ATOM      5  OG  SER A   1       8.677  37.185  27.092  0.00  0.00    -0.287 OA
ENDBRANCH   1   4
BRANCH   1   6
ATOM      6  C   SER A   1       6.028  38.855  25.790  0.00  0.00    +0.162 C 
BRANCH   6   7
ATOM      7  O   SER A   1       6.133  37.680  25.019  0.00  0.00    -0.380 OA
ATOM      8  H   SER A   1       6.184  36.895  25.621  0.00  0.00    +0.211 HD
ENDBRANCH   6   7
ENDBRANCH   1   6
TORSDOF 4
REMARK  Name = ../refined-set-2016/3uri/3uri_pocket.pdb
REMARK  252 active torsions:
REMARK  status: ('A' for Active; 'I' for Inactive)
REMARK    1  A    between atoms: _1  and  _3
REMARK    2  A    between atoms: _3  and  _4
REMARK    3  A    between atoms: _3  and  _6
REMARK    4  A    between atoms: _6  and  _7
REMARK    5  A    between atoms: _10  and  _12
REMARK    6  A    between atoms: _12  and  _13
REMARK    7  A    between atoms: _12  and  _15
REMARK    8  A    between atoms: _15  and  _16
REMARK    9  A    between atoms: _19  and  _21
REMARK   10  A    between atoms: _21  and  _22
REMARK   11  A    between atoms: _21  and  _24
REMARK   12  A    between atoms: _24  and  _25
REMARK   13  A    between atoms: _28  and  _30
REMARK   14  A    between atoms: _30  and  _31
REMARK   15  A    between atoms: _30  and  _33
REMARK   16  A    between atoms: _33  and  _34
REMARK   17  A    between atoms: _37  and  _39
REMARK   18  A    between atoms: _39  and  _40
REMARK   19  A    between atoms: _39  and  _42
REMARK   20  A    between atoms: _42  and  _43
REMARK   21  A    between atoms: _46  and  _48
REMARK   22  A    between atoms: _48  and  _49
REMARK   23  A    between atoms: _52  and  _54
REMARK   24  A    between atoms: _54  and  _55
REMARK   25  A    between atoms: _54  and  _57
REMARK   26  A    between atoms: _57  and  _58
REMARK   27  A    between atoms: _63  and  _64
REMARK   28  A    between atoms: _66  and  _68
REMARK   29  A    between atoms: _68  and  _69
REMARK   30  A    between atoms: _68  and  _71
REMARK   31  A    between atoms: _71  and  _72
REMARK   32  A    between atoms: _75  and  _77
REMARK   33  A    between atoms: _77  and  _78
REMARK   34  A    between atoms: _77  and  _80
REMARK   35  A    between atoms: _80  and  _81
REMARK   36  A    between atoms: _84  and  _86
REMARK   37  A    between atoms: _86  and  _87
REMARK   38  A    between atoms: _86  and  _89
REMARK   39  A    between atoms: _89  and  _90
REMARK   40  A    between atoms: _96  and  _98
REMARK   41  A    between atoms: _98  and  _99
REMARK   42  A    between atoms: _98  and  _101
REMARK   43  A    between atoms: _101  and  _102
REMARK   44  A    between atoms: _105  and  _107
REMARK   45  A    between atoms: _107  and  _108
REMARK   46  A    between atoms: _107  and  _110
REMARK   47  A    between atoms: _110  and  _111
REMARK   48  A    between atoms: _114  and  _116
REMARK   49  A    between atoms: _116  and  _117
REMARK   50  A    between atoms: _119  and  _121
REMARK   51  A    between atoms: _121  and  _122
REMARK   52  A    between atoms: _121  and  _124
REMARK   53  A    between atoms: _124  and  _125
REMARK   54  A    between atoms: _127  and  _129
REMARK   55  A    between atoms: _129  and  _130
REMARK   56  A    between atoms: _129  and  _132
REMARK   57  A    between atoms: _132  and  _133
REMARK   58  A    between atoms: _135  and  _137
REMARK   59  A    between atoms: _137  and  _138
REMARK   60  A    between atoms: _137  and  _140
REMARK   61  A    between atoms: _140  and  _141
REMARK   62  A    between atoms: _144  and  _146
REMARK   63  A    between atoms: _146  and  _147
REMARK   64  A    between atoms: _146  and  _149
REMARK   65  A    between atoms: _149  and  _150
REMARK   66  A    between atoms: _160  and  _162
REMARK   67  A    between atoms: _162  and  _163
REMARK   68  A    between atoms: _162  and  _165
REMARK   69  A    between atoms: _165  and  _166
REMARK   70  A    between atoms: _168  and  _170
REMARK   71  A    between atoms: _170  and  _171
REMARK   72  A    between atoms: _170  and  _173
REMARK   73  A    between atoms: _173  and  _174
REMARK   74  A    between atoms: _177  and  _179
REMARK   75  A    between atoms: _179  and  _180
REMARK   76  A    between atoms: _179  and  _182
REMARK   77  A    between atoms: _182  and  _183
REMARK   78  A    between atoms: _185  and  _187
REMARK   79  A    between atoms: _187  and  _188
REMARK   80  A    between atoms: _187  and  _190
REMARK   81  A    between atoms: _190  and  _191
REMARK   82  A    between atoms: _196  and  _197
REMARK   83  A    between atoms: _199  and  _201
REMARK   84  A    between atoms: _201  and  _202
REMARK   85  A    between atoms: _204  and  _206
REMARK   86  A    between atoms: _206  and  _207
REMARK   87  A    between atoms: _206  and  _209
REMARK   88  A    between atoms: _209  and  _210
REMARK   89  A    between atoms: _213  and  _215
REMARK   90  A    between atoms: _215  and  _216
REMARK   91  A    between atoms: _218  and  _220
REMARK   92  A    between atoms: _220  and  _221
REMARK   93  A    between atoms: _220  and  _223
REMARK   94  A    between atoms: _223  and  _224
REMARK   95  A    between atoms: _226  and  _228
REMARK   96  A    between atoms: _228  and  _229
REMARK   97  A    between atoms: _228  and  _231
REMARK   98  A    between atoms: _231  and  _232
REMARK   99  A    between atoms: _234  and  _236
REMARK  100  A    between atoms: _236  and  _237
REMARK  101  A    between atoms: _236  and  _239
REMARK  102  A    between atoms: _239  and  _240
REMARK  103  A    between atoms: _242  and  _244
REMARK  104  A    between atoms: _244  and  _245
REMARK  105  A    between atoms: _244  and  _247
REMARK  106  A    between atoms: _247  and  _248
REMARK  107  A    between atoms: _250  and  _252
REMARK  108  A    between atoms: _252  and  _253
REMARK  109  A    between atoms: _252  and  _255
REMARK  110  A    between atoms: _255  and  _256
REMARK  111  A    between atoms: _262  and  _264
REMARK  112  A    between atoms: _264  and  _265
REMARK  113  A    between atoms: _264  and  _267
REMARK  114  A    between atoms: _267  and  _268
REMARK  115  A    between atoms: _268  and  _269
REMARK  116  A    between atoms: _272  and  _274
REMARK  117  A    between atoms: _274  and  _275
REMARK  118  A    between atoms: _274  and  _277
REMARK  119  A    between atoms: _277  and  _278
REMARK  120  A    between atoms: _281  and  _283
REMARK  121  A    between atoms: _283  and  _284
REMARK  122  A    between atoms: _283  and  _286
REMARK  123  A    between atoms: _286  and  _287
REMARK  124  A    between atoms: _290  and  _292
REMARK  125  A    between atoms: _292  and  _293
REMARK  126  A    between atoms: _292  and  _295
REMARK  127  A    between atoms: _295  and  _296
REMARK  128  A    between atoms: _299  and  _301
REMARK  129  A    between atoms: _301  and  _302
REMARK  130  A    between atoms: _304  and  _306
REMARK  131  A    between atoms: _306  and  _307
REMARK  132  A    between atoms: _306  and  _309
REMARK  133  A    between atoms: _309  and  _310
REMARK  134  A    between atoms: _313  and  _315
REMARK  135  A    between atoms: _315  and  _316
REMARK  136  A    between atoms: _315  and  _318
REMARK  137  A    between atoms: _318  and  _319
REMARK  138  A    between atoms: _322  and  _324
REMARK  139  A    between atoms: _324  and  _325
REMARK  140  A    between atoms: _328  and  _330
REMARK  141  A    between atoms: _330  and  _331
REMARK  142  A    between atoms: _330  and  _333
REMARK  143  A    between atoms: _333  and  _334
REMARK  144  A    between atoms: _337  and  _339
REMARK  145  A    between atoms: _339  and  _340
REMARK  146  A    between atoms: _339  and  _342
REMARK  147  A    between atoms: _342  and  _343
REMARK  148  A    between atoms: _348  and  _350
REMARK  149  A    between atoms: _350  and  _351
REMARK  150  A    between atoms: _350  and  _353
REMARK  151  A    between atoms: _353  and  _354
REMARK  152  A    between atoms: _357  and  _359
REMARK  153  A    between atoms: _359  and  _360
REMARK  154  A    between atoms: _359  and  _362
REMARK  155  A    between atoms: _362  and  _363
REMARK  156  A    between atoms: _363  and  _364
REMARK  157  A    between atoms: _369  and  _371
REMARK  158  A    between atoms: _371  and  _372
REMARK  159  A    between atoms: _374  and  _376
REMARK  160  A    between atoms: _376  and  _377
REMARK  161  A    between atoms: _376  and  _379
REMARK  162  A    between atoms: _379  and  _380
REMARK  163  A    between atoms: _386  and  _388
REMARK  164  A    between atoms: _388  and  _389
REMARK  165  A    between atoms: _388  and  _391
REMARK  166  A    between atoms: _391  and  _392
REMARK  167  A    between atoms: _395  and  _397
REMARK  168  A    between atoms: _397  and  _398
REMARK  169  A    between atoms: _401  and  _403
REMARK  170  A    between atoms: _403  and  _404
REMARK  171  A    between atoms: _403  and  _406
REMARK  172  A    between atoms: _406  and  _407
REMARK  173  A    between atoms: _410  and  _412
REMARK  174  A    between atoms: _412  and  _413
REMARK  175  A    between atoms: _412  and  _415
REMARK  176  A    between atoms: _415  and  _416
REMARK  177  A    between atoms: _419  and  _421
REMARK  178  A    between atoms: _421  and  _422
REMARK  179  A    between atoms: _424  and  _426
REMARK  180  A    between atoms: _426  and  _427
REMARK  181  A    between atoms: _426  and  _429
REMARK  182  A    between atoms: _429  and  _430
REMARK  183  A    between atoms: _433  and  _435
REMARK  184  A    between atoms: _435  and  _436
REMARK  185  A    between atoms: _435  and  _438
REMARK  186  A    between atoms: _438  and  _439
REMARK  187  A    between atoms: _442  and  _444
REMARK  188  A    between atoms: _444  and  _445
REMARK  189  A    between atoms: _444  and  _447
REMARK  190  A    between atoms: _447  and  _448
REMARK  191  A    between atoms: _451  and  _453
REMARK  192  A    between atoms: _453  and  _454
REMARK  193  A    between atoms: _453  and  _456
REMARK  194  A    between atoms: _456  and  _457
REMARK  195  A    between atoms: _460  and  _462
REMARK  196  A    between atoms: _462  and  _463
REMARK  197  A    between atoms: _462  and  _465
REMARK  198  A    between atoms: _465  and  _466
REMARK  199  A    between atoms: _471  and  _472
REMARK  200  A    between atoms: _474  and  _476
REMARK  201  A    between atoms: _476  and  _477
REMARK  202  A    between atoms: _476  and  _479
REMARK  203  A    between atoms: _482  and  _484
REMARK  204  A    between atoms: _484  and  _485
REMARK  205  A    between atoms: _487  and  _489
REMARK  206  A    between atoms: _489  and  _490
REMARK  207  A    between atoms: _489  and  _492
REMARK  208  A    between atoms: _492  and  _493
REMARK  209  A    between atoms: _499  and  _501
REMARK  210  A    between atoms: _501  and  _502
REMARK  211  A    between atoms: _504  and  _506
REMARK  212  A    between atoms: _506  and  _507
REMARK  213  A    between atoms: _506  and  _509
REMARK  214  A    between atoms: _509  and  _510
REMARK  215  A    between atoms: _516  and  _518
REMARK  216  A    between atoms: _518  and  _519
REMARK  217  A    between atoms: _521  and  _523
REMARK  218  A    between atoms: _523  and  _524
REMARK  219  A    between atoms: _526  and  _528
REMARK  220  A    between atoms: _528  and  _529
REMARK  221  A    between atoms: _528  and  _531
REMARK  222  A    between atoms: _531  and  _532
REMARK  223  A    between atoms: _532  and  _533
REMARK  224  A    between atoms: _538  and  _540
REMARK  225  A    between atoms: _540  and  _541
REMARK  226  A    between atoms: _543  and  _545
REMARK  227  A    between atoms: _545  and  _546
REMARK  228  A    between atoms: _545  and  _548
REMARK  229  A    between atoms: _548  and  _549
REMARK  230  A    between atoms: _552  and  _554
REMARK  231  A    between atoms: _554  and  _555
REMARK  232  A    between atoms: _557  and  _559
REMARK  233  A    between atoms: _559  and  _560
REMARK  234  A    between atoms: _559  and  _562
REMARK  235  A    between atoms: _562  and  _563
REMARK  236  A    between atoms: _566  and  _568
REMARK  237  A    between atoms: _568  and  _569
REMARK  238  A    between atoms: _568  and  _571
REMARK  239  A    between atoms: _571  and  _572
REMARK  240  A    between atoms: _577  and  _579
REMARK  241  A    between atoms: _579  and  _580
REMARK  242  A    between atoms: _579  and  _582
REMARK  243  A    between atoms: _582  and  _583
REMARK  244  A    between atoms: _586  and  _588
REMARK  245  A    between atoms: _588  and  _589
REMARK  246  A    between atoms: _591  and  _593
REMARK  247  A    between atoms: _593  and  _594
REMARK  248  A    between atoms: _593  and  _596
REMARK  249  A    between atoms: _596  and  _597
REMARK  250  A    between atoms: _600  and  _602
REMARK  251  A    between atoms: _602  and  _603
REMARK  252  A    between atoms: _602  and  _605
REMARK                            x       y       z     vdW  Elec       q    Type
REMARK                         _______ _______ _______ _____ _____    ______ ____
ROOT
ATOM      1  C   SER A   1       8.314  33.449  26.209  0.00  0.00    +0.241 C 
ATOM      2  O   SER A   1       8.981  32.421  26.319  0.00  0.00    -0.274 OA
ATOM      3  N   PHE A   2       8.817  34.559  25.664  0.00  0.00    -0.298 N 
ATOM      4  H   PHE A   2       8.241  35.421  25.586  0.00  0.00    +0.150 HD
ENDROOT
BRANCH   1   5
ATOM      5  CA  SER A   1       6.875  33.484  26.704  0.00  0.00    +0.174 C 
BRANCH   5   6
ATOM      6  N   SER A   1       6.620  34.716  27.452  0.00  0.00    -0.236 NA
ATOM      7  H   SER A   1       5.895  35.395  27.144  0.00  0.00    +0.142 HD
ENDBRANCH   5   6
BRANCH   5   8
ATOM      8  CB  SER A   1       5.890  33.357  25.542  0.00  0.00    +0.163 C 
BRANCH   8   9
ATOM      9  OG  SER A   1       5.858  34.586  24.822  0.00  0.00    -0.380 OA
ATOM     10  H   SER A   1       5.568  35.314  25.427  0.00  0.00    +0.211 HD
ENDBRANCH   8   9
ENDBRANCH   5   8
ENDBRANCH   1   5
BRANCH   3  11
ATOM     11  CA  PHE A   2      10.201  34.534  25.178  0.00  0.00    +0.141 C 
BRANCH  11  12
ATOM     12  C   PHE A   2      11.159  34.274  26.337  0.00  0.00    +0.227 C 
ATOM     13  O   PHE A   2      12.011  33.393  26.258  0.00  0.00    -0.286 OA
ENDBRANCH  11  12
BRANCH  11  14
ATOM     14  CB  PHE A   2      10.540  35.831  24.443  0.00  0.00    +0.054 C 
BRANCH  14  15
ATOM     15  CG  PHE A   2       9.863  35.907  23.080  0.00  0.00    -0.020 A 
ATOM     16  CD2 PHE A   2       8.839  36.808  22.847  0.00  0.00    -0.004 A 
ATOM     17  CE2 PHE A   2       8.220  36.863  21.611  0.00  0.00    -0.000 A 
ATOM     18  CZ  PHE A   2       8.630  36.015  20.599  0.00  0.00    -0.000 A 
ATOM     19  CE1 PHE A   2       9.655  35.111  20.817  0.00  0.00    -0.000 A 
ATOM     20  CD1 PHE A   2      10.269  35.062  22.059  0.00  0.00    -0.004 A 
ENDBRANCH  14  15
ENDBRANCH  11  14
ENDBRANCH   3  11
TORSDOF 8
REMARK  Name = ../refined-set-2016/3uri/3uri_pocket.pdb
REMARK  252 active torsions:
REMARK  status: ('A' for Active; 'I' for Inactive)
REMARK    1  A    between atoms: _1  and  _3
REMARK    2  A    between atoms: _3  and  _4
REMARK    3  A    between atoms: _3  and  _6
REMARK    4  A    between atoms: _6  and  _7
REMARK    5  A    between atoms: _10  and  _12
REMARK    6  A    between atoms: _12  and  _13
REMARK    7  A    between atoms: _12  and  _15
REMARK    8  A    between atoms: _15  and  _16
REMARK    9  A    between atoms: _19  and  _21
REMARK   10  A    between atoms: _21  and  _22
REMARK   11  A    between atoms: _21  and  _24
REMARK   12  A    between atoms: _24  and  _25
REMARK   13  A    between atoms: _28  and  _30
REMARK   14  A    between atoms: _30  and  _31
REMARK   15  A    between atoms: _30  and  _33
REMARK   16  A    between atoms: _33  and  _34
REMARK   17  A    between atoms: _37  and  _39
REMARK   18  A    between atoms: _39  and  _40
REMARK   19  A    between atoms: _39  and  _42
REMARK   20  A    between atoms: _42  and  _43
REMARK   21  A    between atoms: _46  and  _48
REMARK   22  A    between atoms: _48  and  _49
REMARK   23  A    between atoms: _52  and  _54
REMARK   24  A    between atoms: _54  and  _55
REMARK   25  A    between atoms: _54  and  _57
REMARK   26  A    between atoms: _57  and  _58
REMARK   27  A    between atoms: _63  and  _64
REMARK   28  A    between atoms: _66  and  _68
REMARK   29  A    between atoms: _68  and  _69
REMARK   30  A    between atoms: _68  and  _71
REMARK   31  A    between atoms: _71  and  _72
REMARK   32  A    between atoms: _75  and  _77
REMARK   33  A    between atoms: _77  and  _78
REMARK   34  A    between atoms: _77  and  _80
REMARK   35  A    between atoms: _80  and  _81
REMARK   36  A    between atoms: _84  and  _86
REMARK   37  A    between atoms: _86  and  _87
REMARK   38  A    between atoms: _86  and  _89
REMARK   39  A    between atoms: _89  and  _90
REMARK   40  A    between atoms: _96  and  _98
REMARK   41  A    between atoms: _98  and  _99
REMARK   42  A    between atoms: _98  and  _101
REMARK   43  A    between atoms: _101  and  _102
REMARK   44  A    between atoms: _105  and  _107
REMARK   45  A    between atoms: _107  and  _108
REMARK   46  A    between atoms: _107  and  _110
REMARK   47  A    between atoms: _110  and  _111
REMARK   48  A    between atoms: _114  and  _116
REMARK   49  A    between atoms: _116  and  _117
REMARK   50  A    between atoms: _119  and  _121
REMARK   51  A    between atoms: _121  and  _122
REMARK   52  A    between atoms: _121  and  _124
REMARK   53  A    between atoms: _124  and  _125
REMARK   54  A    between atoms: _127  and  _129
REMARK   55  A    between atoms: _129  and  _130
REMARK   56  A    between atoms: _129  and  _132
REMARK   57  A    between atoms: _132  and  _133
REMARK   58  A    between atoms: _135  and  _137
REMARK   59  A    between atoms: _137  and  _138
REMARK   60  A    between atoms: _137  and  _140
REMARK   61  A    between atoms: _140  and  _141
REMARK   62  A    between atoms: _144  and  _146
REMARK   63  A    between atoms: _146  and  _147
REMARK   64  A    between atoms: _146  and  _149
REMARK   65  A    between atoms: _149  and  _150
REMARK   66  A    between atoms: _160  and  _162
REMARK   67  A    between atoms: _162  and  _163
REMARK   68  A    between atoms: _162  and  _165
REMARK   69  A    between atoms: _165  and  _166
REMARK   70  A    between atoms: _168  and  _170
REMARK   71  A    between atoms: _170  and  _171
REMARK   72  A    between atoms: _170  and  _173
REMARK   73  A    between atoms: _173  and  _174
REMARK   74  A    between atoms: _177  and  _179
REMARK   75  A    between atoms: _179  and  _180
REMARK   76  A    between atoms: _179  and  _182
REMARK   77  A    between atoms: _182  and  _183
REMARK   78  A    between atoms: _185  and  _187
REMARK   79  A    between atoms: _187  and  _188
REMARK   80  A    between atoms: _187  and  _190
REMARK   81  A    between atoms: _190  and  _191
REMARK   82  A    between atoms: _196  and  _197
REMARK   83  A    between atoms: _199  and  _201
REMARK   84  A    between atoms: _201  and  _202
REMARK   85  A    between atoms: _204  and  _206
REMARK   86  A    between atoms: _206  and  _207
REMARK   87  A    between atoms: _206  and  _209
REMARK   88  A    between atoms: _209  and  _210
REMARK   89  A    between atoms: _213  and  _215
REMARK   90  A    between atoms: _215  and  _216
REMARK   91  A    between atoms: _218  and  _220
REMARK   92  A    between atoms: _220  and  _221
REMARK   93  A    between atoms: _220  and  _223
REMARK   94  A    between atoms: _223  and  _224
REMARK   95  A    between atoms: _226  and  _228
REMARK   96  A    between atoms: _228  and  _229
REMARK   97  A    between atoms: _228  and  _231
REMARK   98  A    between atoms: _231  and  _232
REMARK   99  A    between atoms: _234  and  _236
REMARK  100  A    between atoms: _236  and  _237
REMARK  101  A    between atoms: _236  and  _239
REMARK  102  A    between atoms: _239  and  _240
REMARK  103  A    between atoms: _242  and  _244
REMARK  104  A    between atoms: _244  and  _245
REMARK  105  A    between atoms: _244  and  _247
REMARK  106  A    between atoms: _247  and  _248
REMARK  107  A    between atoms: _250  and  _252
REMARK  108  A    between atoms: _252  and  _253
REMARK  109  A    between atoms: _252  and  _255
REMARK  110  A    between atoms: _255  and  _256
REMARK  111  A    between atoms: _262  and  _264
REMARK  112  A    between atoms: _264  and  _265
REMARK  113  A    between atoms: _264  and  _267
REMARK  114  A    between atoms: _267  and  _268
REMARK  115  A    between atoms: _268  and  _269
REMARK  116  A    between atoms: _272  and  _274
REMARK  117  A    between atoms: _274  and  _275
REMARK  118  A    between atoms: _274  and  _277
REMARK  119  A    between atoms: _277  and  _278
REMARK  120  A    between atoms: _281  and  _283
REMARK  121  A    between atoms: _283  and  _284
REMARK  122  A    between atoms: _283  and  _286
REMARK  123  A    between atoms: _286  and  _287
REMARK  124  A    between atoms: _290  and  _292
REMARK  125  A    between atoms: _292  and  _293
REMARK  126  A    between atoms: _292  and  _295
REMARK  127  A    between atoms: _295  and  _296
REMARK  128  A    between atoms: _299  and  _301
REMARK  129  A    between atoms: _301  and  _302
REMARK  130  A    between atoms: _304  and  _306
REMARK  131  A    between atoms: _306  and  _307
REMARK  132  A    between atoms: _306  and  _309
REMARK  133  A    between atoms: _309  and  _310
REMARK  134  A    between atoms: _313  and  _315
REMARK  135  A    between atoms: _315  and  _316
REMARK  136  A    between atoms: _315  and  _318
REMARK  137  A    between atoms: _318  and  _319
REMARK  138  A    between atoms: _322  and  _324
REMARK  139  A    between atoms: _324  and  _325
REMARK  140  A    between atoms: _328  and  _330
REMARK  141  A    between atoms: _330  and  _331
REMARK  142  A    between atoms: _330  and  _333
REMARK  143  A    between atoms: _333  and  _334
REMARK  144  A    between atoms: _337  and  _339
REMARK  145  A    between atoms: _339  and  _340
REMARK  146  A    between atoms: _339  and  _342
REMARK  147  A    between atoms: _342  and  _343
REMARK  148  A    between atoms: _348  and  _350
REMARK  149  A    between atoms: _350  and  _351
REMARK  150  A    between atoms: _350  and  _353
REMARK  151  A    between atoms: _353  and  _354
REMARK  152  A    between atoms: _357  and  _359
REMARK  153  A    between atoms: _359  and  _360
REMARK  154  A    between atoms: _359  and  _362
REMARK  155  A    between atoms: _362  and  _363
REMARK  156  A    between atoms: _363  and  _364
REMARK  157  A    between atoms: _369  and  _371
REMARK  158  A    between atoms: _371  and  _372
REMARK  159  A    between atoms: _374  and  _376
REMARK  160  A    between atoms: _376  and  _377
REMARK  161  A    between atoms: _376  and  _379
REMARK  162  A    between atoms: _379  and  _380
REMARK  163  A    between atoms: _386  and  _388
REMARK  164  A    between atoms: _388  and  _389
REMARK  165  A    between atoms: _388  and  _391
REMARK  166  A    between atoms: _391  and  _392
REMARK  167  A    between atoms: _395  and  _397
REMARK  168  A    between atoms: _397  and  _398
REMARK  169  A    between atoms: _401  and  _403
REMARK  170  A    between atoms: _403  and  _404
REMARK  171  A    between atoms: _403  and  _406
REMARK  172  A    between atoms: _406  and  _407
REMARK  173  A    between atoms: _410  and  _412
REMARK  174  A    between atoms: _412  and  _413
REMARK  175  A    between atoms: _412  and  _415
REMARK  176  A    between atoms: _415  and  _416
REMARK  177  A    between atoms: _419  and  _421
REMARK  178  A    between atoms: _421  and  _422
REMARK  179  A    between atoms: _424  and  _426
REMARK  180  A    between atoms: _426  and  _427
REMARK  181  A    between atoms: _426  and  _429
REMARK  182  A    between atoms: _429  and  _430
REMARK  183  A    between atoms: _433  and  _435
REMARK  184  A    between atoms: _435  and  _436
REMARK  185  A    between atoms: _435  and  _438
REMARK  186  A    between atoms: _438  and  _439
REMARK  187  A    between atoms: _442  and  _444
REMARK  188  A    between atoms: _444  and  _445
REMARK  189  A    between atoms: _444  and  _447
REMARK  190  A    between atoms: _447  and  _448
REMARK  191  A    between atoms: _451  and  _453
REMARK  192  A    between atoms: _453  and  _454
REMARK  193  A    between atoms: _453  and  _456
REMARK  194  A    between atoms: _456  and  _457
REMARK  195  A    between atoms: _460  and  _462
REMARK  196  A    between atoms: _462  and  _463
REMARK  197  A    between atoms: _462  and  _465
REMARK  198  A    between atoms: _465  and  _466
REMARK  199  A    between atoms: _471  and  _472
REMARK  200  A    between atoms: _474  and  _476
REMARK  201  A    between atoms: _476  and  _477
REMARK  202  A    between atoms: _476  and  _479
REMARK  203  A    between atoms: _482  and  _484
REMARK  204  A    between atoms: _484  and  _485
REMARK  205  A    between atoms: _487  and  _489
REMARK  206  A    between atoms: _489  and  _490
REMARK  207  A    between atoms: _489  and  _492
REMARK  208  A    between atoms: _492  and  _493
REMARK  209  A    between atoms: _499  and  _501
REMARK  210  A    between atoms: _501  and  _502
REMARK  211  A    between atoms: _504  and  _506
REMARK  212  A    between atoms: _506  and  _507
REMARK  213  A    between atoms: _506  and  _509
REMARK  214  A    between atoms: _509  and  _510
REMARK  215  A    between atoms: _516  and  _518
REMARK  216  A    between atoms: _518  and  _519
REMARK  217  A    between atoms: _521  and  _523
REMARK  218  A    between atoms: _523  and  _524
REMARK  219  A    between atoms: _526  and  _528
REMARK  220  A    between atoms: _528  and  _529
REMARK  221  A    between atoms: _528  and  _531
REMARK  222  A    between atoms: _531  and  _532
REMARK  223  A    between atoms: _532  and  _533
REMARK  224  A    between atoms: _538  and  _540
REMARK  225  A    between atoms: _540  and  _541
REMARK  226  A    between atoms: _543  and  _545
REMARK  227  A    between atoms: _545  and  _546
REMARK  228  A    between atoms: _545  and  _548
REMARK  229  A    between atoms: _548  and  _549
REMARK  230  A    between atoms: _552  and  _554
REMARK  231  A    between atoms: _554  and  _555
REMARK  232  A    between atoms: _557  and  _559
REMARK  233  A    between atoms: _559  and  _560
REMARK  234  A    between atoms: _559  and  _562
REMARK  235  A    between atoms: _562  and  _563
REMARK  236  A    between atoms: _566  and  _568
REMARK  237  A    between atoms: _568  and  _569
REMARK  238  A    between atoms: _568  and  _571
REMARK  239  A    between atoms: _571  and  _572
REMARK  240  A    between atoms: _577  and  _579
REMARK  241  A    between atoms: _579  and  _580
REMARK  242  A    between atoms: _579  and  _582
REMARK  243  A    between atoms: _582  and  _583
REMARK  244  A    between atoms: _586  and  _588
REMARK  245  A    between atoms: _588  and  _589
REMARK  246  A    between atoms: _591  and  _593
REMARK  247  A    between atoms: _593  and  _594
REMARK  248  A    between atoms: _593  and  _596
REMARK  249  A    between atoms: _596  and  _597
REMARK  250  A    between atoms: _600  and  _602
REMARK  251  A    between atoms: _602  and  _603
REMARK  252  A    between atoms: _602  and  _605
REMARK                            x       y       z     vdW  Elec       q    Type
REMARK                         _______ _______ _______ _____ _____    ______ ____
ROOT
ATOM      1  C   GLU A   1      11.202  30.343  28.468  0.00  0.00    +0.238 C 
ATOM      2  O   GLU A   1      11.459  29.171  28.771  0.00  0.00    -0.274 OA
ATOM      3  N   ASP A   2      11.435  30.752  27.224  0.00  0.00    -0.298 N 
ATOM      4  H   ASP A   2      11.161  31.705  26.910  0.00  0.00    +0.150 HD
ENDROOT
BRANCH   1   5
ATOM      5  CA  GLU A   1      10.637  31.299  29.512  0.00  0.00    +0.145 C 
BRANCH   5   6
ATOM      6  N   GLU A   1      10.670  32.687  29.072  0.00  0.00    -0.238 NA
ATOM      7  H   GLU A   1       9.789  33.152  28.773  0.00  0.00    +0.142 HD
ENDBRANCH   5   6
BRANCH   5   8
ATOM      8  CB  GLU A   1       9.212  30.885  29.892  0.00  0.00    +0.038 C 
BRANCH   8   9
ATOM      9  CG  GLU A   1       8.444  31.895  30.725  0.00  0.00    +0.116 C 
BRANCH   9  10
ATOM     10  CD  GLU A   1       6.947  31.648  30.701  0.00  0.00    +0.365 C 
ATOM     11  OE2 GLU A   1       6.223  32.247  31.526  0.00  0.00    -0.246 OA
ATOM     12  OE1 GLU A   1       6.487  30.857  29.854  0.00  0.00    -0.246 OA
ENDBRANCH   9  10
ENDBRANCH   8   9
ENDBRANCH   5   8
ENDBRANCH   1   5
BRANCH   3  13
ATOM     13  CA  ASP A   2      12.094  29.809  26.310  0.00  0.00    +0.148 C 
BRANCH  13  14
ATOM     14  C   ASP A   2      13.602  30.021  26.366  0.00  0.00    +0.227 C 
ATOM     15  O   ASP A   2      14.117  31.033  25.897  0.00  0.00    -0.286 OA
ENDBRANCH  13  14
BRANCH  13  16
ATOM     16  CB  ASP A   2      11.605  29.951  24.875  0.00  0.00    +0.142 C 
BRANCH  16  17
ATOM     17  CG  ASP A   2      10.161  30.397  24.788  0.00  0.00    +0.367 C 
ATOM     18  OD2 ASP A   2       9.336  29.883  25.577  0.00  0.00    -0.246 OA
ATOM     19  OD1 ASP A   2       9.854  31.267  23.939  0.00  0.00    -0.246 OA
ENDBRANCH  16  17
ENDBRANCH  13  16
ENDBRANCH   3  13
TORSDOF 9
REMARK  Name = ../refined-set-2016/3uri/3uri_pocket.pdb
REMARK  252 active torsions:
REMARK  status: ('A' for Active; 'I' for Inactive)
REMARK    1  A    between atoms: _1  and  _3
REMARK    2  A    between atoms: _3  and  _4
REMARK    3  A    between atoms: _3  and  _6
REMARK    4  A    between atoms: _6  and  _7
REMARK    5  A    between atoms: _10  and  _12
REMARK    6  A    between atoms: _12  and  _13
REMARK    7  A    between atoms: _12  and  _15
REMARK    8  A    between atoms: _15  and  _16
REMARK    9  A    between atoms: _19  and  _21
REMARK   10  A    between atoms: _21  and  _22
REMARK   11  A    between atoms: _21  and  _24
REMARK   12  A    between atoms: _24  and  _25
REMARK   13  A    between atoms: _28  and  _30
REMARK   14  A    between atoms: _30  and  _31
REMARK   15  A    between atoms: _30  and  _33
REMARK   16  A    between atoms: _33  and  _34
REMARK   17  A    between atoms: _37  and  _39
REMARK   18  A    between atoms: _39  and  _40
REMARK   19  A    between atoms: _39  and  _42
REMARK   20  A    between atoms: _42  and  _43
REMARK   21  A    between atoms: _46  and  _48
REMARK   22  A    between atoms: _48  and  _49
REMARK   23  A    between atoms: _52  and  _54
REMARK   24  A    between atoms: _54  and  _55
REMARK   25  A    between atoms: _54  and  _57
REMARK   26  A    between atoms: _57  and  _58
REMARK   27  A    between atoms: _63  and  _64
REMARK   28  A    between atoms: _66  and  _68
REMARK   29  A    between atoms: _68  and  _69
REMARK   30  A    between atoms: _68  and  _71
REMARK   31  A    between atoms: _71  and  _72
REMARK   32  A    between atoms: _75  and  _77
REMARK   33  A    between atoms: _77  and  _78
REMARK   34  A    between atoms: _77  and  _80
REMARK   35  A    between atoms: _80  and  _81
REMARK   36  A    between atoms: _84  and  _86
REMARK   37  A    between atoms: _86  and  _87
REMARK   38  A    between atoms: _86  and  _89
REMARK   39  A    between atoms: _89  and  _90
REMARK   40  A    between atoms: _96  and  _98
REMARK   41  A    between atoms: _98  and  _99
REMARK   42  A    between atoms: _98  and  _101
REMARK   43  A    between atoms: _101  and  _102
REMARK   44  A    between atoms: _105  and  _107
REMARK   45  A    between atoms: _107  and  _108
REMARK   46  A    between atoms: _107  and  _110
REMARK   47  A    between atoms: _110  and  _111
REMARK   48  A    between atoms: _114  and  _116
REMARK   49  A    between atoms: _116  and  _117
REMARK   50  A    between atoms: _119  and  _121
REMARK   51  A    between atoms: _121  and  _122
REMARK   52  A    between atoms: _121  and  _124
REMARK   53  A    between atoms: _124  and  _125
REMARK   54  A    between atoms: _127  and  _129
REMARK   55  A    between atoms: _129  and  _130
REMARK   56  A    between atoms: _129  and  _132
REMARK   57  A    between atoms: _132  and  _133
REMARK   58  A    between atoms: _135  and  _137
REMARK   59  A    between atoms: _137  and  _138
REMARK   60  A    between atoms: _137  and  _140
REMARK   61  A    between atoms: _140  and  _141
REMARK   62  A    between atoms: _144  and  _146
REMARK   63  A    between atoms: _146  and  _147
REMARK   64  A    between atoms: _146  and  _149
REMARK   65  A    between atoms: _149  and  _150
REMARK   66  A    between atoms: _160  and  _162
REMARK   67  A    between atoms: _162  and  _163
REMARK   68  A    between atoms: _162  and  _165
REMARK   69  A    between atoms: _165  and  _166
REMARK   70  A    between atoms: _168  and  _170
REMARK   71  A    between atoms: _170  and  _171
REMARK   72  A    between atoms: _170  and  _173
REMARK   73  A    between atoms: _173  and  _174
REMARK   74  A    between atoms: _177  and  _179
REMARK   75  A    between atoms: _179  and  _180
REMARK   76  A    between atoms: _179  and  _182
REMARK   77  A    between atoms: _182  and  _183
REMARK   78  A    between atoms: _185  and  _187
REMARK   79  A    between atoms: _187  and  _188
REMARK   80  A    between atoms: _187  and  _190
REMARK   81  A    between atoms: _190  and  _191
REMARK   82  A    between atoms: _196  and  _197
REMARK   83  A    between atoms: _199  and  _201
REMARK   84  A    between atoms: _201  and  _202
REMARK   85  A    between atoms: _204  and  _206
REMARK   86  A    between atoms: _206  and  _207
REMARK   87  A    between atoms: _206  and  _209
REMARK   88  A    between atoms: _209  and  _210
REMARK   89  A    between atoms: _213  and  _215
REMARK   90  A    between atoms: _215  and  _216
REMARK   91  A    between atoms: _218  and  _220
REMARK   92  A    between atoms: _220  and  _221
REMARK   93  A    between atoms: _220  and  _223
REMARK   94  A    between atoms: _223  and  _224
REMARK   95  A    between atoms: _226  and  _228
REMARK   96  A    between atoms: _228  and  _229
REMARK   97  A    between atoms: _228  and  _231
REMARK   98  A    between atoms: _231  and  _232
REMARK   99  A    between atoms: _234  and  _236
REMARK  100  A    between atoms: _236  and  _237
REMARK  101  A    between atoms: _236  and  _239
REMARK  102  A    between atoms: _239  and  _240
REMARK  103  A    between atoms: _242  and  _244
REMARK  104  A    between atoms: _244  and  _245
REMARK  105  A    between atoms: _244  and  _247
REMARK  106  A    between atoms: _247  and  _248
REMARK  107  A    between atoms: _250  and  _252
REMARK  108  A    between atoms: _252  and  _253
REMARK  109  A    between atoms: _252  and  _255
REMARK  110  A    between atoms: _255  and  _256
REMARK  111  A    between atoms: _262  and  _264
REMARK  112  A    between atoms: _264  and  _265
REMARK  113  A    between atoms: _264  and  _267
REMARK  114  A    between atoms: _267  and  _268
REMARK  115  A    between atoms: _268  and  _269
REMARK  116  A    between atoms: _272  and  _274
REMARK  117  A    between atoms: _274  and  _275
REMARK  118  A    between atoms: _274  and  _277
REMARK  119  A    between atoms: _277  and  _278
REMARK  120  A    between atoms: _281  and  _283
REMARK  121  A    between atoms: _283  and  _284
REMARK  122  A    between atoms: _283  and  _286
REMARK  123  A    between atoms: _286  and  _287
REMARK  124  A    between atoms: _290  and  _292
REMARK  125  A    between atoms: _292  and  _293
REMARK  126  A    between atoms: _292  and  _295
REMARK  127  A    between atoms: _295  and  _296
REMARK  128  A    between atoms: _299  and  _301
REMARK  129  A    between atoms: _301  and  _302
REMARK  130  A    between atoms: _304  and  _306
REMARK  131  A    between atoms: _306  and  _307
REMARK  132  A    between atoms: _306  and  _309
REMARK  133  A    between atoms: _309  and  _310
REMARK  134  A    between atoms: _313  and  _315
REMARK  135  A    between atoms: _315  and  _316
REMARK  136  A    between atoms: _315  and  _318
REMARK  137  A    between atoms: _318  and  _319
REMARK  138  A    between atoms: _322  and  _324
REMARK  139  A    between atoms: _324  and  _325
REMARK  140  A    between atoms: _328  and  _330
REMARK  141  A    between atoms: _330  and  _331
REMARK  142  A    between atoms: _330  and  _333
REMARK  143  A    between atoms: _333  and  _334
REMARK  144  A    between atoms: _337  and  _339
REMARK  145  A    between atoms: _339  and  _340
REMARK  146  A    between atoms: _339  and  _342
REMARK  147  A    between atoms: _342  and  _343
REMARK  148  A    between atoms: _348  and  _350
REMARK  149  A    between atoms: _350  and  _351
REMARK  150  A    between atoms: _350  and  _353
REMARK  151  A    between atoms: _353  and  _354
REMARK  152  A    between atoms: _357  and  _359
REMARK  153  A    between atoms: _359  and  _360
REMARK  154  A    between atoms: _359  and  _362
REMARK  155  A    between atoms: _362  and  _363
REMARK  156  A    between atoms: _363  and  _364
REMARK  157  A    between atoms: _369  and  _371
REMARK  158  A    between atoms: _371  and  _372
REMARK  159  A    between atoms: _374  and  _376
REMARK  160  A    between atoms: _376  and  _377
REMARK  161  A    between atoms: _376  and  _379
REMARK  162  A    between atoms: _379  and  _380
REMARK  163  A    between atoms: _386  and  _388
REMARK  164  A    between atoms: _388  and  _389
REMARK  165  A    between atoms: _388  and  _391
REMARK  166  A    between atoms: _391  and  _392
REMARK  167  A    between atoms: _395  and  _397
REMARK  168  A    between atoms: _397  and  _398
REMARK  169  A    between atoms: _401  and  _403
REMARK  170  A    between atoms: _403  and  _404
REMARK  171  A    between atoms: _403  and  _406
REMARK  172  A    between atoms: _406  and  _407
REMARK  173  A    between atoms: _410  and  _412
REMARK  174  A    between atoms: _412  and  _413
REMARK  175  A    between atoms: _412  and  _415
REMARK  176  A    between atoms: _415  and  _416
REMARK  177  A    between atoms: _419  and  _421
REMARK  178  A    between atoms: _421  and  _422
REMARK  179  A    between atoms: _424  and  _426
REMARK  180  A    between atoms: _426  and  _427
REMARK  181  A    between atoms: _426  and  _429
REMARK  182  A    between atoms: _429  and  _430
REMARK  183  A    between atoms: _433  and  _435
REMARK  184  A    between atoms: _435  and  _436
REMARK  185  A    between atoms: _435  and  _438
REMARK  186  A    between atoms: _438  and  _439
REMARK  187  A    between atoms: _442  and  _444
REMARK  188  A    between atoms: _444  and  _445
REMARK  189  A    between atoms: _444  and  _447
REMARK  190  A    between atoms: _447  and  _448
REMARK  191  A    between atoms: _451  and  _453
REMARK  192  A    between atoms: _453  and  _454
REMARK  193  A    between atoms: _453  and  _456
REMARK  194  A    between atoms: _456  and  _457
REMARK  195  A    between atoms: _460  and  _462
REMARK  196  A    between atoms: _462  and  _463
REMARK  197  A    between atoms: _462  and  _465
REMARK  198  A    between atoms: _465  and  _466
REMARK  199  A    between atoms: _471  and  _472
REMARK  200  A    between atoms: _474  and  _476
REMARK  201  A    between atoms: _476  and  _477
REMARK  202  A    between atoms: _476  and  _479
REMARK  203  A    between atoms: _482  and  _484
REMARK  204  A    between atoms: _484  and  _485
REMARK  205  A    between atoms: _487  and  _489
REMARK  206  A    between atoms: _489  and  _490
REMARK  207  A    between atoms: _489  and  _492
REMARK  208  A    between atoms: _492  and  _493
REMARK  209  A    between atoms: _499  and  _501
REMARK  210  A    between atoms: _501  and  _502
REMARK  211  A    between atoms: _504  and  _506
REMARK  212  A    between atoms: _506  and  _507
REMARK  213  A    between atoms: _506  and  _509
REMARK  214  A    between atoms: _509  and  _510
REMARK  215  A    between atoms: _516  and  _518
REMARK  216  A    between atoms: _518  and  _519
REMARK  217  A    between atoms: _521  and  _523
REMARK  218  A    between atoms: _523  and  _524
REMARK  219  A    between atoms: _526  and  _528
REMARK  220  A    between atoms: _528  and  _529
REMARK  221  A    between atoms: _528  and  _531
REMARK  222  A    between atoms: _531  and  _532
REMARK  223  A    between atoms: _532  and  _533
REMARK  224  A    between atoms: _538  and  _540
REMARK  225  A    between atoms: _540  and  _541
REMARK  226  A    between atoms: _543  and  _545
REMARK  227  A    between atoms: _545  and  _546
REMARK  228  A    between atoms: _545  and  _548
REMARK  229  A    between atoms: _548  and  _549
REMARK  230  A    between atoms: _552  and  _554
REMARK  231  A    between atoms: _554  and  _555
REMARK  232  A    between atoms: _557  and  _559
REMARK  233  A    between atoms: _559  and  _560
REMARK  234  A    between atoms: _559  and  _562
REMARK  235  A    between atoms: _562  and  _563
REMARK  236  A    between atoms: _566  and  _568
REMARK  237  A    between atoms: _568  and  _569
REMARK  238  A    between atoms: _568  and  _571
REMARK  239  A    between atoms: _571  and  _572
REMARK  240  A    between atoms: _577  and  _579
REMARK  241  A    between atoms: _579  and  _580
REMARK  242  A    between atoms: _579  and  _582
REMARK  243  A    between atoms: _582  and  _583
REMARK  244  A    between atoms: _586  and  _588
REMARK  245  A    between atoms: _588  and  _589
REMARK  246  A    between atoms: _591  and  _593
REMARK  247  A    between atoms: _593  and  _594
REMARK  248  A    between atoms: _593  and  _596
REMARK  249  A    between atoms: _596  and  _597
REMARK  250  A    between atoms: _600  and  _602
REMARK  251  A    between atoms: _602  and  _603
REMARK  252  A    between atoms: _602  and  _605
REMARK                            x       y       z     vdW  Elec       q    Type
REMARK                         _______ _______ _______ _____ _____    ______ ____
ROOT
ATOM      1  C   THR A   1      16.368  28.705  22.526  0.00  0.00    +0.241 C 
ATOM      2  N   ILE A   2      15.411  29.630  22.515  0.00  0.00    -0.298 N 
ATOM      3  H   ILE A   2      14.695  29.641  23.270  0.00  0.00    +0.150 HD
ATOM      4  O   THR A   1      17.229  28.672  21.637  0.00  0.00    -0.274 OA
ENDROOT
BRANCH   1   5
ATOM      5  CA  THR A   1      16.389  27.673  23.643  0.00  0.00    +0.172 C 
BRANCH   5   6
ATOM      6  N   THR A   1      15.787  28.119  24.897  0.00  0.00    -0.236 NA
ATOM      7  H   THR A   1      14.820  27.819  25.134  0.00  0.00    +0.142 HD
ENDBRANCH   5   6
BRANCH   5   8
ATOM      8  CB  THR A   1      15.668  26.404  23.134  0.00  0.00    +0.135 C 
ATOM      9  CG2 THR A   1      16.287  25.166  23.765  0.00  0.00    +0.034 C 
BRANCH   8  10
ATOM     10  OG1 THR A   1      14.295  26.457  23.539  0.00  0.00    -0.383 OA
ATOM     11  HG1 THR A   1      13.826  25.647  23.217  0.00  0.00    +0.210 HD
ENDBRANCH   8  10
ENDBRANCH   5   8
ENDBRANCH   1   5
BRANCH   2  12
ATOM     12  CA  ILE A   2      15.358  30.631  21.450  0.00  0.00    +0.137 C 
BRANCH  12  13
ATOM     13  C   ILE A   2      16.024  31.930  21.885  0.00  0.00    +0.227 C 
ATOM     14  O   ILE A   2      15.596  32.574  22.845  0.00  0.00    -0.286 OA
ENDBRANCH  12  13
BRANCH  12  15
ATOM     15  CB  ILE A   2      13.918  30.947  21.008  0.00  0.00    +0.026 C 
ATOM     16  CG2 ILE A   2      13.894  31.908  19.826  0.00  0.00    +0.002 C 
BRANCH  15  17
ATOM     17  CG1 ILE A   2      13.076  29.714  20.683  0.00  0.00    +0.002 C 
ATOM     18  CD1 ILE A   2      11.834  29.610  21.544  0.00  0.00    +0.000 C 
ENDBRANCH  15  17
ENDBRANCH  12  15
ENDBRANCH   2  12
TORSDOF 8
REMARK  Name = ../refined-set-2016/3uri/3uri_pocket.pdb
REMARK  252 active torsions:
REMARK  status: ('A' for Active; 'I' for Inactive)
REMARK    1  A    between atoms: _1  and  _3
REMARK    2  A    between atoms: _3  and  _4
REMARK    3  A    between atoms: _3  and  _6
REMARK    4  A    between atoms: _6  and  _7
REMARK    5  A    between atoms: _10  and  _12
REMARK    6  A    between atoms: _12  and  _13
REMARK    7  A    between atoms: _12  and  _15
REMARK    8  A    between atoms: _15  and  _16
REMARK    9  A    between atoms: _19  and  _21
REMARK   10  A    between atoms: _21  and  _22
REMARK   11  A    between atoms: _21  and  _24
REMARK   12  A    between atoms: _24  and  _25
REMARK   13  A    between atoms: _28  and  _30
REMARK   14  A    between atoms: _30  and  _31
REMARK   15  A    between atoms: _30  and  _33
REMARK   16  A    between atoms: _33  and  _34
REMARK   17  A    between atoms: _37  and  _39
REMARK   18  A    between atoms: _39  and  _40
REMARK   19  A    between atoms: _39  and  _42
REMARK   20  A    between atoms: _42  and  _43
REMARK   21  A    between atoms: _46  and  _48
REMARK   22  A    between atoms: _48  and  _49
REMARK   23  A    between atoms: _52  and  _54
REMARK   24  A    between atoms: _54  and  _55
REMARK   25  A    between atoms: _54  and  _57
REMARK   26  A    between atoms: _57  and  _58
REMARK   27  A    between atoms: _63  and  _64
REMARK   28  A    between atoms: _66  and  _68
REMARK   29  A    between atoms: _68  and  _69
REMARK   30  A    between atoms: _68  and  _71
REMARK   31  A    between atoms: _71  and  _72
REMARK   32  A    between atoms: _75  and  _77
REMARK   33  A    between atoms: _77  and  _78
REMARK   34  A    between atoms: _77  and  _80
REMARK   35  A    between atoms: _80  and  _81
REMARK   36  A    between atoms: _84  and  _86
REMARK   37  A    between atoms: _86  and  _87
REMARK   38  A    between atoms: _86  and  _89
REMARK   39  A    between atoms: _89  and  _90
REMARK   40  A    between atoms: _96  and  _98
REMARK   41  A    between atoms: _98  and  _99
REMARK   42  A    between atoms: _98  and  _101
REMARK   43  A    between atoms: _101  and  _102
REMARK   44  A    between atoms: _105  and  _107
REMARK   45  A    between atoms: _107  and  _108
REMARK   46  A    between atoms: _107  and  _110
REMARK   47  A    between atoms: _110  and  _111
REMARK   48  A    between atoms: _114  and  _116
REMARK   49  A    between atoms: _116  and  _117
REMARK   50  A    between atoms: _119  and  _121
REMARK   51  A    between atoms: _121  and  _122
REMARK   52  A    between atoms: _121  and  _124
REMARK   53  A    between atoms: _124  and  _125
REMARK   54  A    between atoms: _127  and  _129
REMARK   55  A    between atoms: _129  and  _130
REMARK   56  A    between atoms: _129  and  _132
REMARK   57  A    between atoms: _132  and  _133
REMARK   58  A    between atoms: _135  and  _137
REMARK   59  A    between atoms: _137  and  _138
REMARK   60  A    between atoms: _137  and  _140
REMARK   61  A    between atoms: _140  and  _141
REMARK   62  A    between atoms: _144  and  _146
REMARK   63  A    between atoms: _146  and  _147
REMARK   64  A    between atoms: _146  and  _149
REMARK   65  A    between atoms: _149  and  _150
REMARK   66  A    between atoms: _160  and  _162
REMARK   67  A    between atoms: _162  and  _163
REMARK   68  A    between atoms: _162  and  _165
REMARK   69  A    between atoms: _165  and  _166
REMARK   70  A    between atoms: _168  and  _170
REMARK   71  A    between atoms: _170  and  _171
REMARK   72  A    between atoms: _170  and  _173
REMARK   73  A    between atoms: _173  and  _174
REMARK   74  A    between atoms: _177  and  _179
REMARK   75  A    between atoms: _179  and  _180
REMARK   76  A    between atoms: _179  and  _182
REMARK   77  A    between atoms: _182  and  _183
REMARK   78  A    between atoms: _185  and  _187
REMARK   79  A    between atoms: _187  and  _188
REMARK   80  A    between atoms: _187  and  _190
REMARK   81  A    between atoms: _190  and  _191
REMARK   82  A    between atoms: _196  and  _197
REMARK   83  A    between atoms: _199  and  _201
REMARK   84  A    between atoms: _201  and  _202
REMARK   85  A    between atoms: _204  and  _206
REMARK   86  A    between atoms: _206  and  _207
REMARK   87  A    between atoms: _206  and  _209
REMARK   88  A    between atoms: _209  and  _210
REMARK   89  A    between atoms: _213  and  _215
REMARK   90  A    between atoms: _215  and  _216
REMARK   91  A    between atoms: _218  and  _220
REMARK   92  A    between atoms: _220  and  _221
REMARK   93  A    between atoms: _220  and  _223
REMARK   94  A    between atoms: _223  and  _224
REMARK   95  A    between atoms: _226  and  _228
REMARK   96  A    between atoms: _228  and  _229
REMARK   97  A    between atoms: _228  and  _231
REMARK   98  A    between atoms: _231  and  _232
REMARK   99  A    between atoms: _234  and  _236
REMARK  100  A    between atoms: _236  and  _237
REMARK  101  A    between atoms: _236  and  _239
REMARK  102  A    between atoms: _239  and  _240
REMARK  103  A    between atoms: _242  and  _244
REMARK  104  A    between atoms: _244  and  _245
REMARK  105  A    between atoms: _244  and  _247
REMARK  106  A    between atoms: _247  and  _248
REMARK  107  A    between atoms: _250  and  _252
REMARK  108  A    between atoms: _252  and  _253
REMARK  109  A    between atoms: _252  and  _255
REMARK  110  A    between atoms: _255  and  _256
REMARK  111  A    between atoms: _262  and  _264
REMARK  112  A    between atoms: _264  and  _265
REMARK  113  A    between atoms: _264  and  _267
REMARK  114  A    between atoms: _267  and  _268
REMARK  115  A    between atoms: _268  and  _269
REMARK  116  A    between atoms: _272  and  _274
REMARK  117  A    between atoms: _274  and  _275
REMARK  118  A    between atoms: _274  and  _277
REMARK  119  A    between atoms: _277  and  _278
REMARK  120  A    between atoms: _281  and  _283
REMARK  121  A    between atoms: _283  and  _284
REMARK  122  A    between atoms: _283  and  _286
REMARK  123  A    between atoms: _286  and  _287
REMARK  124  A    between atoms: _290  and  _292
REMARK  125  A    between atoms: _292  and  _293
REMARK  126  A    between atoms: _292  and  _295
REMARK  127  A    between atoms: _295  and  _296
REMARK  128  A    between atoms: _299  and  _301
REMARK  129  A    between atoms: _301  and  _302
REMARK  130  A    between atoms: _304  and  _306
REMARK  131  A    between atoms: _306  and  _307
REMARK  132  A    between atoms: _306  and  _309
REMARK  133  A    between atoms: _309  and  _310
REMARK  134  A    between atoms: _313  and  _315
REMARK  135  A    between atoms: _315  and  _316
REMARK  136  A    between atoms: _315  and  _318
REMARK  137  A    between atoms: _318  and  _319
REMARK  138  A    between atoms: _322  and  _324
REMARK  139  A    between atoms: _324  and  _325
REMARK  140  A    between atoms: _328  and  _330
REMARK  141  A    between atoms: _330  and  _331
REMARK  142  A    between atoms: _330  and  _333
REMARK  143  A    between atoms: _333  and  _334
REMARK  144  A    between atoms: _337  and  _339
REMARK  145  A    between atoms: _339  and  _340
REMARK  146  A    between atoms: _339  and  _342
REMARK  147  A    between atoms: _342  and  _343
REMARK  148  A    between atoms: _348  and  _350
REMARK  149  A    between atoms: _350  and  _351
REMARK  150  A    between atoms: _350  and  _353
REMARK  151  A    between atoms: _353  and  _354
REMARK  152  A    between atoms: _357  and  _359
REMARK  153  A    between atoms: _359  and  _360
REMARK  154  A    between atoms: _359  and  _362
REMARK  155  A    between atoms: _362  and  _363
REMARK  156  A    between atoms: _363  and  _364
REMARK  157  A    between atoms: _369  and  _371
REMARK  158  A    between atoms: _371  and  _372
REMARK  159  A    between atoms: _374  and  _376
REMARK  160  A    between atoms: _376  and  _377
REMARK  161  A    between atoms: _376  and  _379
REMARK  162  A    between atoms: _379  and  _380
REMARK  163  A    between atoms: _386  and  _388
REMARK  164  A    between atoms: _388  and  _389
REMARK  165  A    between atoms: _388  and  _391
REMARK  166  A    between atoms: _391  and  _392
REMARK  167  A    between atoms: _395  and  _397
REMARK  168  A    between atoms: _397  and  _398
REMARK  169  A    between atoms: _401  and  _403
REMARK  170  A    between atoms: _403  and  _404
REMARK  171  A    between atoms: _403  and  _406
REMARK  172  A    between atoms: _406  and  _407
REMARK  173  A    between atoms: _410  and  _412
REMARK  174  A    between atoms: _412  and  _413
REMARK  175  A    between atoms: _412  and  _415
REMARK  176  A    between atoms: _415  and  _416
REMARK  177  A    between atoms: _419  and  _421
REMARK  178  A    between atoms: _421  and  _422
REMARK  179  A    between atoms: _424  and  _426
REMARK  180  A    between atoms: _426  and  _427
REMARK  181  A    between atoms: _426  and  _429
REMARK  182  A    between atoms: _429  and  _430
REMARK  183  A    between atoms: _433  and  _435
REMARK  184  A    between atoms: _435  and  _436
REMARK  185  A    between atoms: _435  and  _438
REMARK  186  A    between atoms: _438  and  _439
REMARK  187  A    between atoms: _442  and  _444
REMARK  188  A    between atoms: _444  and  _445
REMARK  189  A    between atoms: _444  and  _447
REMARK  190  A    between atoms: _447  and  _448
REMARK  191  A    between atoms: _451  and  _453
REMARK  192  A    between atoms: _453  and  _454
REMARK  193  A    between atoms: _453  and  _456
REMARK  194  A    between atoms: _456  and  _457
REMARK  195  A    between atoms: _460  and  _462
REMARK  196  A    between atoms: _462  and  _463
REMARK  197  A    between atoms: _462  and  _465
REMARK  198  A    between atoms: _465  and  _466
REMARK  199  A    between atoms: _471  and  _472
REMARK  200  A    between atoms: _474  and  _476
REMARK  201  A    between atoms: _476  and  _477
REMARK  202  A    between atoms: _476  and  _479
REMARK  203  A    between atoms: _482  and  _484
REMARK  204  A    between atoms: _484  and  _485
REMARK  205  A    between atoms: _487  and  _489
REMARK  206  A    between atoms: _489  and  _490
REMARK  207  A    between atoms: _489  and  _492
REMARK  208  A    between atoms: _492  and  _493
REMARK  209  A    between atoms: _499  and  _501
REMARK  210  A    between atoms: _501  and  _502
REMARK  211  A    between atoms: _504  and  _506
REMARK  212  A    between atoms: _506  and  _507
REMARK  213  A    between atoms: _506  and  _509
REMARK  214  A    between atoms: _509  and  _510
REMARK  215  A    between atoms: _516  and  _518
REMARK  216  A    between atoms: _518  and  _519
REMARK  217  A    between atoms: _521  and  _523
REMARK  218  A    between atoms: _523  and  _524
REMARK  219  A    between atoms: _526  and  _528
REMARK  220  A    between atoms: _528  and  _529
REMARK  221  A    between atoms: _528  and  _531
REMARK  222  A    between atoms: _531  and  _532
REMARK  223  A    between atoms: _532  and  _533
REMARK  224  A    between atoms: _538  and  _540
REMARK  225  A    between atoms: _540  and  _541
REMARK  226  A    between atoms: _543  and  _545
REMARK  227  A    between atoms: _545  and  _546
REMARK  228  A    between atoms: _545  and  _548
REMARK  229  A    between atoms: _548  and  _549
REMARK  230  A    between atoms: _552  and  _554
REMARK  231  A    between atoms: _554  and  _555
REMARK  232  A    between atoms: _557  and  _559
REMARK  233  A    between atoms: _559  and  _560
REMARK  234  A    between atoms: _559  and  _562
REMARK  235  A    between atoms: _562  and  _563
REMARK  236  A    between atoms: _566  and  _568
REMARK  237  A    between atoms: _568  and  _569
REMARK  238  A    between atoms: _568  and  _571
REMARK  239  A    between atoms: _571  and  _572
REMARK  240  A    between atoms: _577  and  _579
REMARK  241  A    between atoms: _579  and  _580
REMARK  242  A    between atoms: _579  and  _582
REMARK  243  A    between atoms: _582  and  _583
REMARK  244  A    between atoms: _586  and  _588
REMARK  245  A    between atoms: _588  and  _589
REMARK  246  A    between atoms: _591  and  _593
REMARK  247  A    between atoms: _593  and  _594
REMARK  248  A    between atoms: _593  and  _596
REMARK  249  A    between atoms: _596  and  _597
REMARK  250  A    between atoms: _600  and  _602
REMARK  251  A    between atoms: _602  and  _603
REMARK  252  A    between atoms: _602  and  _605
REMARK                            x       y       z     vdW  Elec       q    Type
REMARK                         _______ _______ _______ _____ _____    ______ ____
ROOT
ATOM      1  CA  LEU A   2      14.110  35.406  15.571  0.00  0.00    +0.149 C 
ENDROOT
BRANCH   1   4
ATOM      2  C   GLY A   1      15.267  34.983  17.635  0.00  0.00    +0.240 C 
ATOM      3  O   GLY A   1      15.191  33.776  17.427  0.00  0.00    -0.274 OA
ATOM      4  N   LEU A   2      14.758  35.879  16.795  0.00  0.00    -0.297 N 
ATOM      5  H   LEU A   2      14.819  36.896  17.004  0.00  0.00    +0.150 HD
BRANCH   2   6
ATOM      6  CA  GLY A   1      15.961  35.526  18.864  0.00  0.00    +0.169 C 
BRANCH   6   7
ATOM      7  N   GLY A   1      16.482  34.455  19.701  0.00  0.00    -0.236 NA
ATOM      8  H   GLY A   1      16.278  33.462  19.467  0.00  0.00    +0.142 HD
ENDBRANCH   6   7
ENDBRANCH   2   6
ENDBRANCH   1   4
BRANCH   1   9
ATOM      9  C   LEU A   2      14.796  36.001  14.341  0.00  0.00    +0.241 C 
ATOM     10  O   LEU A   2      15.489  37.008  14.500  0.00  0.00    -0.273 OA
ATOM     11  N   LEU A   3      14.576  35.373  13.199  0.00  0.00    -0.298 N 
ATOM     12  H   LEU A   3      13.996  34.511  13.235  0.00  0.00    +0.150 HD
BRANCH  11  13
ATOM     13  CA  LEU A   3      15.077  35.786  11.893  0.00  0.00    +0.137 C 
BRANCH  13  14
ATOM     14  C   LEU A   3      13.956  35.730  10.849  0.00  0.00    +0.227 C 
ATOM     15  O   LEU A   3      13.500  34.656  10.452  0.00  0.00    -0.286 OA
ENDBRANCH  13  14
BRANCH  13  16
ATOM     16  CB  LEU A   3      16.246  34.929  11.413  0.00  0.00    +0.028 C 
BRANCH  16  17
ATOM     17  CG  LEU A   3      17.186  35.606  10.407  0.00  0.00    +0.002 C 
ATOM     18  CD2 LEU A   3      18.610  35.115  10.588  0.00  0.00    +0.000 C 
ATOM     19  CD1 LEU A   3      16.707  35.378   8.983  0.00  0.00    +0.000 C 
ENDBRANCH  16  17
ENDBRANCH  13  16
ENDBRANCH  11  13
ENDBRANCH   1   9
BRANCH   1  20
ATOM     20  CB  LEU A   2      12.634  35.771  15.572  0.00  0.00    +0.029 C 
BRANCH  20  21
ATOM     21  CG  LEU A   2      11.634  34.720  16.050  0.00  0.00    +0.002 C 
ATOM     22  CD2 LEU A   2      11.464  34.789  17.560  0.00  0.00    +0.000 C 
ATOM     23  CD1 LEU A   2      10.295  34.899  15.343  0.00  0.00    +0.000 C 
ENDBRANCH  20  21
ENDBRANCH   1  20
TORSDOF 10
REMARK  Name = ../refined-set-2016/3uri/3uri_pocket.pdb
REMARK  252 active torsions:
REMARK  status: ('A' for Active; 'I' for Inactive)
REMARK    1  A    between atoms: _1  and  _3
REMARK    2  A    between atoms: _3  and  _4
REMARK    3  A    between atoms: _3  and  _6
REMARK    4  A    between atoms: _6  and  _7
REMARK    5  A    between atoms: _10  and  _12
REMARK    6  A    between atoms: _12  and  _13
REMARK    7  A    between atoms: _12  and  _15
REMARK    8  A    between atoms: _15  and  _16
REMARK    9  A    between atoms: _19  and  _21
REMARK   10  A    between atoms: _21  and  _22
REMARK   11  A    between atoms: _21  and  _24
REMARK   12  A    between atoms: _24  and  _25
REMARK   13  A    between atoms: _28  and  _30
REMARK   14  A    between atoms: _30  and  _31
REMARK   15  A    between atoms: _30  and  _33
REMARK   16  A    between atoms: _33  and  _34
REMARK   17  A    between atoms: _37  and  _39
REMARK   18  A    between atoms: _39  and  _40
REMARK   19  A    between atoms: _39  and  _42
REMARK   20  A    between atoms: _42  and  _43
REMARK   21  A    between atoms: _46  and  _48
REMARK   22  A    between atoms: _48  and  _49
REMARK   23  A    between atoms: _52  and  _54
REMARK   24  A    between atoms: _54  and  _55
REMARK   25  A    between atoms: _54  and  _57
REMARK   26  A    between atoms: _57  and  _58
REMARK   27  A    between atoms: _63  and  _64
REMARK   28  A    between atoms: _66  and  _68
REMARK   29  A    between atoms: _68  and  _69
REMARK   30  A    between atoms: _68  and  _71
REMARK   31  A    between atoms: _71  and  _72
REMARK   32  A    between atoms: _75  and  _77
REMARK   33  A    between atoms: _77  and  _78
REMARK   34  A    between atoms: _77  and  _80
REMARK   35  A    between atoms: _80  and  _81
REMARK   36  A    between atoms: _84  and  _86
REMARK   37  A    between atoms: _86  and  _87
REMARK   38  A    between atoms: _86  and  _89
REMARK   39  A    between atoms: _89  and  _90
REMARK   40  A    between atoms: _96  and  _98
REMARK   41  A    between atoms: _98  and  _99
REMARK   42  A    between atoms: _98  and  _101
REMARK   43  A    between atoms: _101  and  _102
REMARK   44  A    between atoms: _105  and  _107
REMARK   45  A    between atoms: _107  and  _108
REMARK   46  A    between atoms: _107  and  _110
REMARK   47  A    between atoms: _110  and  _111
REMARK   48  A    between atoms: _114  and  _116
REMARK   49  A    between atoms: _116  and  _117
REMARK   50  A    between atoms: _119  and  _121
REMARK   51  A    between atoms: _121  and  _122
REMARK   52  A    between atoms: _121  and  _124
REMARK   53  A    between atoms: _124  and  _125
REMARK   54  A    between atoms: _127  and  _129
REMARK   55  A    between atoms: _129  and  _130
REMARK   56  A    between atoms: _129  and  _132
REMARK   57  A    between atoms: _132  and  _133
REMARK   58  A    between atoms: _135  and  _137
REMARK   59  A    between atoms: _137  and  _138
REMARK   60  A    between atoms: _137  and  _140
REMARK   61  A    between atoms: _140  and  _141
REMARK   62  A    between atoms: _144  and  _146
REMARK   63  A    between atoms: _146  and  _147
REMARK   64  A    between atoms: _146  and  _149
REMARK   65  A    between atoms: _149  and  _150
REMARK   66  A    between atoms: _160  and  _162
REMARK   67  A    between atoms: _162  and  _163
REMARK   68  A    between atoms: _162  and  _165
REMARK   69  A    between atoms: _165  and  _166
REMARK   70  A    between atoms: _168  and  _170
REMARK   71  A    between atoms: _170  and  _171
REMARK   72  A    between atoms: _170  and  _173
REMARK   73  A    between atoms: _173  and  _174
REMARK   74  A    between atoms: _177  and  _179
REMARK   75  A    between atoms: _179  and  _180
REMARK   76  A    between atoms: _179  and  _182
REMARK   77  A    between atoms: _182  and  _183
REMARK   78  A    between atoms: _185  and  _187
REMARK   79  A    between atoms: _187  and  _188
REMARK   80  A    between atoms: _187  and  _190
REMARK   81  A    between atoms: _190  and  _191
REMARK   82  A    between atoms: _196  and  _197
REMARK   83  A    between atoms: _199  and  _201
REMARK   84  A    between atoms: _201  and  _202
REMARK   85  A    between atoms: _204  and  _206
REMARK   86  A    between atoms: _206  and  _207
REMARK   87  A    between atoms: _206  and  _209
REMARK   88  A    between atoms: _209  and  _210
REMARK   89  A    between atoms: _213  and  _215
REMARK   90  A    between atoms: _215  and  _216
REMARK   91  A    between atoms: _218  and  _220
REMARK   92  A    between atoms: _220  and  _221
REMARK   93  A    between atoms: _220  and  _223
REMARK   94  A    between atoms: _223  and  _224
REMARK   95  A    between atoms: _226  and  _228
REMARK   96  A    between atoms: _228  and  _229
REMARK   97  A    between atoms: _228  and  _231
REMARK   98  A    between atoms: _231  and  _232
REMARK   99  A    between atoms: _234  and  _236
REMARK  100  A    between atoms: _236  and  _237
REMARK  101  A    between atoms: _236  and  _239
REMARK  102  A    between atoms: _239  and  _240
REMARK  103  A    between atoms: _242  and  _244
REMARK  104  A    between atoms: _244  and  _245
REMARK  105  A    between atoms: _244  and  _247
REMARK  106  A    between atoms: _247  and  _248
REMARK  107  A    between atoms: _250  and  _252
REMARK  108  A    between atoms: _252  and  _253
REMARK  109  A    between atoms: _252  and  _255
REMARK  110  A    between atoms: _255  and  _256
REMARK  111  A    between atoms: _262  and  _264
REMARK  112  A    between atoms: _264  and  _265
REMARK  113  A    between atoms: _264  and  _267
REMARK  114  A    between atoms: _267  and  _268
REMARK  115  A    between atoms: _268  and  _269
REMARK  116  A    between atoms: _272  and  _274
REMARK  117  A    between atoms: _274  and  _275
REMARK  118  A    between atoms: _274  and  _277
REMARK  119  A    between atoms: _277  and  _278
REMARK  120  A    between atoms: _281  and  _283
REMARK  121  A    between atoms: _283  and  _284
REMARK  122  A    between atoms: _283  and  _286
REMARK  123  A    between atoms: _286  and  _287
REMARK  124  A    between atoms: _290  and  _292
REMARK  125  A    between atoms: _292  and  _293
REMARK  126  A    between atoms: _292  and  _295
REMARK  127  A    between atoms: _295  and  _296
REMARK  128  A    between atoms: _299  and  _301
REMARK  129  A    between atoms: _301  and  _302
REMARK  130  A    between atoms: _304  and  _306
REMARK  131  A    between atoms: _306  and  _307
REMARK  132  A    between atoms: _306  and  _309
REMARK  133  A    between atoms: _309  and  _310
REMARK  134  A    between atoms: _313  and  _315
REMARK  135  A    between atoms: _315  and  _316
REMARK  136  A    between atoms: _315  and  _318
REMARK  137  A    between atoms: _318  and  _319
REMARK  138  A    between atoms: _322  and  _324
REMARK  139  A    between atoms: _324  and  _325
REMARK  140  A    between atoms: _328  and  _330
REMARK  141  A    between atoms: _330  and  _331
REMARK  142  A    between atoms: _330  and  _333
REMARK  143  A    between atoms: _333  and  _334
REMARK  144  A    between atoms: _337  and  _339
REMARK  145  A    between atoms: _339  and  _340
REMARK  146  A    between atoms: _339  and  _342
REMARK  147  A    between atoms: _342  and  _343
REMARK  148  A    between atoms: _348  and  _350
REMARK  149  A    between atoms: _350  and  _351
REMARK  150  A    between atoms: _350  and  _353
REMARK  151  A    between atoms: _353  and  _354
REMARK  152  A    between atoms: _357  and  _359
REMARK  153  A    between atoms: _359  and  _360
REMARK  154  A    between atoms: _359  and  _362
REMARK  155  A    between atoms: _362  and  _363
REMARK  156  A    between atoms: _363  and  _364
REMARK  157  A    between atoms: _369  and  _371
REMARK  158  A    between atoms: _371  and  _372
REMARK  159  A    between atoms: _374  and  _376
REMARK  160  A    between atoms: _376  and  _377
REMARK  161  A    between atoms: _376  and  _379
REMARK  162  A    between atoms: _379  and  _380
REMARK  163  A    between atoms: _386  and  _388
REMARK  164  A    between atoms: _388  and  _389
REMARK  165  A    between atoms: _388  and  _391
REMARK  166  A    between atoms: _391  and  _392
REMARK  167  A    between atoms: _395  and  _397
REMARK  168  A    between atoms: _397  and  _398
REMARK  169  A    between atoms: _401  and  _403
REMARK  170  A    between atoms: _403  and  _404
REMARK  171  A    between atoms: _403  and  _406
REMARK  172  A    between atoms: _406  and  _407
REMARK  173  A    between atoms: _410  and  _412
REMARK  174  A    between atoms: _412  and  _413
REMARK  175  A    between atoms: _412  and  _415
REMARK  176  A    between atoms: _415  and  _416
REMARK  177  A    between atoms: _419  and  _421
REMARK  178  A    between atoms: _421  and  _422
REMARK  179  A    between atoms: _424  and  _426
REMARK  180  A    between atoms: _426  and  _427
REMARK  181  A    between atoms: _426  and  _429
REMARK  182  A    between atoms: _429  and  _430
REMARK  183  A    between atoms: _433  and  _435
REMARK  184  A    between atoms: _435  and  _436
REMARK  185  A    between atoms: _435  and  _438
REMARK  186  A    between atoms: _438  and  _439
REMARK  187  A    between atoms: _442  and  _444
REMARK  188  A    between atoms: _444  and  _445
REMARK  189  A    between atoms: _444  and  _447
REMARK  190  A    between atoms: _447  and  _448
REMARK  191  A    between atoms: _451  and  _453
REMARK  192  A    between atoms: _453  and  _454
REMARK  193  A    between atoms: _453  and  _456
REMARK  194  A    between atoms: _456  and  _457
REMARK  195  A    between atoms: _460  and  _462
REMARK  196  A    between atoms: _462  and  _463
REMARK  197  A    between atoms: _462  and  _465
REMARK  198  A    between atoms: _465  and  _466
REMARK  199  A    between atoms: _471  and  _472
REMARK  200  A    between atoms: _474  and  _476
REMARK  201  A    between atoms: _476  and  _477
REMARK  202  A    between atoms: _476  and  _479
REMARK  203  A    between atoms: _482  and  _484
REMARK  204  A    between atoms: _484  and  _485
REMARK  205  A    between atoms: _487  and  _489
REMARK  206  A    between atoms: _489  and  _490
REMARK  207  A    between atoms: _489  and  _492
REMARK  208  A    between atoms: _492  and  _493
REMARK  209  A    between atoms: _499  and  _501
REMARK  210  A    between atoms: _501  and  _502
REMARK  211  A    between atoms: _504  and  _506
REMARK  212  A    between atoms: _506  and  _507
REMARK  213  A    between atoms: _506  and  _509
REMARK  214  A    between atoms: _509  and  _510
REMARK  215  A    between atoms: _516  and  _518
REMARK  216  A    between atoms: _518  and  _519
REMARK  217  A    between atoms: _521  and  _523
REMARK  218  A    between atoms: _523  and  _524
REMARK  219  A    between atoms: _526  and  _528
REMARK  220  A    between atoms: _528  and  _529
REMARK  221  A    between atoms: _528  and  _531
REMARK  222  A    between atoms: _531  and  _532
REMARK  223  A    between atoms: _532  and  _533
REMARK  224  A    between atoms: _538  and  _540
REMARK  225  A    between atoms: _540  and  _541
REMARK  226  A    between atoms: _543  and  _545
REMARK  227  A    between atoms: _545  and  _546
REMARK  228  A    between atoms: _545  and  _548
REMARK  229  A    between atoms: _548  and  _549
REMARK  230  A    between atoms: _552  and  _554
REMARK  231  A    between atoms: _554  and  _555
REMARK  232  A    between atoms: _557  and  _559
REMARK  233  A    between atoms: _559  and  _560
REMARK  234  A    between atoms: _559  and  _562
REMARK  235  A    between atoms: _562  and  _563
REMARK  236  A    between atoms: _566  and  _568
REMARK  237  A    between atoms: _568  and  _569
REMARK  238  A    between atoms: _568  and  _571
REMARK  239  A    between atoms: _571  and  _572
REMARK  240  A    between atoms: _577  and  _579
REMARK  241  A    between atoms: _579  and  _580
REMARK  242  A    between atoms: _579  and  _582
REMARK  243  A    between atoms: _582  and  _583
REMARK  244  A    between atoms: _586  and  _588
REMARK  245  A    between atoms: _588  and  _589
REMARK  246  A    between atoms: _591  and  _593
REMARK  247  A    between atoms: _593  and  _594
REMARK  248  A    between atoms: _593  and  _596
REMARK  249  A    between atoms: _596  and  _597
REMARK  250  A    between atoms: _600  and  _602
REMARK  251  A    between atoms: _602  and  _603
REMARK  252  A    between atoms: _602  and  _605
REMARK                            x       y       z     vdW  Elec       q    Type
REMARK                         _______ _______ _______ _____ _____    ______ ____
ROOT
ATOM      1  CA  ALA A   1       8.971  36.940   5.072  0.00  0.00    +0.133 C 
ATOM      2  CB  ALA A   1       7.829  37.176   6.051  0.00  0.00    +0.027 C 
ENDROOT
BRANCH   1   3
ATOM      3  N   ALA A   1      10.164  36.478   5.775  0.00  0.00    -0.239 NA
ATOM      4  H   ALA A   1      10.362  36.870   6.718  0.00  0.00    +0.142 HD
ENDBRANCH   1   3
BRANCH   1   5
ATOM      5  C   ALA A   1       9.287  38.199   4.272  0.00  0.00    +0.224 C 
ATOM      6  O   ALA A   1      10.402  38.731   4.350  0.00  0.00    -0.287 OA
ENDBRANCH   1   5
TORSDOF 2
REMARK  Name = ../refined-set-2016/3uri/3uri_pocket.pdb
REMARK  252 active torsions:
REMARK  status: ('A' for Active; 'I' for Inactive)
REMARK    1  A    between atoms: _1  and  _3
REMARK    2  A    between atoms: _3  and  _4
REMARK    3  A    between atoms: _3  and  _6
REMARK    4  A    between atoms: _6  and  _7
REMARK    5  A    between atoms: _10  and  _12
REMARK    6  A    between atoms: _12  and  _13
REMARK    7  A    between atoms: _12  and  _15
REMARK    8  A    between atoms: _15  and  _16
REMARK    9  A    between atoms: _19  and  _21
REMARK   10  A    between atoms: _21  and  _22
REMARK   11  A    between atoms: _21  and  _24
REMARK   12  A    between atoms: _24  and  _25
REMARK   13  A    between atoms: _28  and  _30
REMARK   14  A    between atoms: _30  and  _31
REMARK   15  A    between atoms: _30  and  _33
REMARK   16  A    between atoms: _33  and  _34
REMARK   17  A    between atoms: _37  and  _39
REMARK   18  A    between atoms: _39  and  _40
REMARK   19  A    between atoms: _39  and  _42
REMARK   20  A    between atoms: _42  and  _43
REMARK   21  A    between atoms: _46  and  _48
REMARK   22  A    between atoms: _48  and  _49
REMARK   23  A    between atoms: _52  and  _54
REMARK   24  A    between atoms: _54  and  _55
REMARK   25  A    between atoms: _54  and  _57
REMARK   26  A    between atoms: _57  and  _58
REMARK   27  A    between atoms: _63  and  _64
REMARK   28  A    between atoms: _66  and  _68
REMARK   29  A    between atoms: _68  and  _69
REMARK   30  A    between atoms: _68  and  _71
REMARK   31  A    between atoms: _71  and  _72
REMARK   32  A    between atoms: _75  and  _77
REMARK   33  A    between atoms: _77  and  _78
REMARK   34  A    between atoms: _77  and  _80
REMARK   35  A    between atoms: _80  and  _81
REMARK   36  A    between atoms: _84  and  _86
REMARK   37  A    between atoms: _86  and  _87
REMARK   38  A    between atoms: _86  and  _89
REMARK   39  A    between atoms: _89  and  _90
REMARK   40  A    between atoms: _96  and  _98
REMARK   41  A    between atoms: _98  and  _99
REMARK   42  A    between atoms: _98  and  _101
REMARK   43  A    between atoms: _101  and  _102
REMARK   44  A    between atoms: _105  and  _107
REMARK   45  A    between atoms: _107  and  _108
REMARK   46  A    between atoms: _107  and  _110
REMARK   47  A    between atoms: _110  and  _111
REMARK   48  A    between atoms: _114  and  _116
REMARK   49  A    between atoms: _116  and  _117
REMARK   50  A    between atoms: _119  and  _121
REMARK   51  A    between atoms: _121  and  _122
REMARK   52  A    between atoms: _121  and  _124
REMARK   53  A    between atoms: _124  and  _125
REMARK   54  A    between atoms: _127  and  _129
REMARK   55  A    between atoms: _129  and  _130
REMARK   56  A    between atoms: _129  and  _132
REMARK   57  A    between atoms: _132  and  _133
REMARK   58  A    between atoms: _135  and  _137
REMARK   59  A    between atoms: _137  and  _138
REMARK   60  A    between atoms: _137  and  _140
REMARK   61  A    between atoms: _140  and  _141
REMARK   62  A    between atoms: _144  and  _146
REMARK   63  A    between atoms: _146  and  _147
REMARK   64  A    between atoms: _146  and  _149
REMARK   65  A    between atoms: _149  and  _150
REMARK   66  A    between atoms: _160  and  _162
REMARK   67  A    between atoms: _162  and  _163
REMARK   68  A    between atoms: _162  and  _165
REMARK   69  A    between atoms: _165  and  _166
REMARK   70  A    between atoms: _168  and  _170
REMARK   71  A    between atoms: _170  and  _171
REMARK   72  A    between atoms: _170  and  _173
REMARK   73  A    between atoms: _173  and  _174
REMARK   74  A    between atoms: _177  and  _179
REMARK   75  A    between atoms: _179  and  _180
REMARK   76  A    between atoms: _179  and  _182
REMARK   77  A    between atoms: _182  and  _183
REMARK   78  A    between atoms: _185  and  _187
REMARK   79  A    between atoms: _187  and  _188
REMARK   80  A    between atoms: _187  and  _190
REMARK   81  A    between atoms: _190  and  _191
REMARK   82  A    between atoms: _196  and  _197
REMARK   83  A    between atoms: _199  and  _201
REMARK   84  A    between atoms: _201  and  _202
REMARK   85  A    between atoms: _204  and  _206
REMARK   86  A    between atoms: _206  and  _207
REMARK   87  A    between atoms: _206  and  _209
REMARK   88  A    between atoms: _209  and  _210
REMARK   89  A    between atoms: _213  and  _215
REMARK   90  A    between atoms: _215  and  _216
REMARK   91  A    between atoms: _218  and  _220
REMARK   92  A    between atoms: _220  and  _221
REMARK   93  A    between atoms: _220  and  _223
REMARK   94  A    between atoms: _223  and  _224
REMARK   95  A    between atoms: _226  and  _228
REMARK   96  A    between atoms: _228  and  _229
REMARK   97  A    between atoms: _228  and  _231
REMARK   98  A    between atoms: _231  and  _232
REMARK   99  A    between atoms: _234  and  _236
REMARK  100  A    between atoms: _236  and  _237
REMARK  101  A    between atoms: _236  and  _239
REMARK  102  A    between atoms: _239  and  _240
REMARK  103  A    between atoms: _242  and  _244
REMARK  104  A    between atoms: _244  and  _245
REMARK  105  A    between atoms: _244  and  _247
REMARK  106  A    between atoms: _247  and  _248
REMARK  107  A    between atoms: _250  and  _252
REMARK  108  A    between atoms: _252  and  _253
REMARK  109  A    between atoms: _252  and  _255
REMARK  110  A    between atoms: _255  and  _256
REMARK  111  A    between atoms: _262  and  _264
REMARK  112  A    between atoms: _264  and  _265
REMARK  113  A    between atoms: _264  and  _267
REMARK  114  A    between atoms: _267  and  _268
REMARK  115  A    between atoms: _268  and  _269
REMARK  116  A    between atoms: _272  and  _274
REMARK  117  A    between atoms: _274  and  _275
REMARK  118  A    between atoms: _274  and  _277
REMARK  119  A    between atoms: _277  and  _278
REMARK  120  A    between atoms: _281  and  _283
REMARK  121  A    between atoms: _283  and  _284
REMARK  122  A    between atoms: _283  and  _286
REMARK  123  A    between atoms: _286  and  _287
REMARK  124  A    between atoms: _290  and  _292
REMARK  125  A    between atoms: _292  and  _293
REMARK  126  A    between atoms: _292  and  _295
REMARK  127  A    between atoms: _295  and  _296
REMARK  128  A    between atoms: _299  and  _301
REMARK  129  A    between atoms: _301  and  _302
REMARK  130  A    between atoms: _304  and  _306
REMARK  131  A    between atoms: _306  and  _307
REMARK  132  A    between atoms: _306  and  _309
REMARK  133  A    between atoms: _309  and  _310
REMARK  134  A    between atoms: _313  and  _315
REMARK  135  A    between atoms: _315  and  _316
REMARK  136  A    between atoms: _315  and  _318
REMARK  137  A    between atoms: _318  and  _319
REMARK  138  A    between atoms: _322  and  _324
REMARK  139  A    between atoms: _324  and  _325
REMARK  140  A    between atoms: _328  and  _330
REMARK  141  A    between atoms: _330  and  _331
REMARK  142  A    between atoms: _330  and  _333
REMARK  143  A    between atoms: _333  and  _334
REMARK  144  A    between atoms: _337  and  _339
REMARK  145  A    between atoms: _339  and  _340
REMARK  146  A    between atoms: _339  and  _342
REMARK  147  A    between atoms: _342  and  _343
REMARK  148  A    between atoms: _348  and  _350
REMARK  149  A    between atoms: _350  and  _351
REMARK  150  A    between atoms: _350  and  _353
REMARK  151  A    between atoms: _353  and  _354
REMARK  152  A    between atoms: _357  and  _359
REMARK  153  A    between atoms: _359  and  _360
REMARK  154  A    between atoms: _359  and  _362
REMARK  155  A    between atoms: _362  and  _363
REMARK  156  A    between atoms: _363  and  _364
REMARK  157  A    between atoms: _369  and  _371
REMARK  158  A    between atoms: _371  and  _372
REMARK  159  A    between atoms: _374  and  _376
REMARK  160  A    between atoms: _376  and  _377
REMARK  161  A    between atoms: _376  and  _379
REMARK  162  A    between atoms: _379  and  _380
REMARK  163  A    between atoms: _386  and  _388
REMARK  164  A    between atoms: _388  and  _389
REMARK  165  A    between atoms: _388  and  _391
REMARK  166  A    between atoms: _391  and  _392
REMARK  167  A    between atoms: _395  and  _397
REMARK  168  A    between atoms: _397  and  _398
REMARK  169  A    between atoms: _401  and  _403
REMARK  170  A    between atoms: _403  and  _404
REMARK  171  A    between atoms: _403  and  _406
REMARK  172  A    between atoms: _406  and  _407
REMARK  173  A    between atoms: _410  and  _412
REMARK  174  A    between atoms: _412  and  _413
REMARK  175  A    between atoms: _412  and  _415
REMARK  176  A    between atoms: _415  and  _416
REMARK  177  A    between atoms: _419  and  _421
REMARK  178  A    between atoms: _421  and  _422
REMARK  179  A    between atoms: _424  and  _426
REMARK  180  A    between atoms: _426  and  _427
REMARK  181  A    between atoms: _426  and  _429
REMARK  182  A    between atoms: _429  and  _430
REMARK  183  A    between atoms: _433  and  _435
REMARK  184  A    between atoms: _435  and  _436
REMARK  185  A    between atoms: _435  and  _438
REMARK  186  A    between atoms: _438  and  _439
REMARK  187  A    between atoms: _442  and  _444
REMARK  188  A    between atoms: _444  and  _445
REMARK  189  A    between atoms: _444  and  _447
REMARK  190  A    between atoms: _447  and  _448
REMARK  191  A    between atoms: _451  and  _453
REMARK  192  A    between atoms: _453  and  _454
REMARK  193  A    between atoms: _453  and  _456
REMARK  194  A    between atoms: _456  and  _457
REMARK  195  A    between atoms: _460  and  _462
REMARK  196  A    between atoms: _462  and  _463
REMARK  197  A    between atoms: _462  and  _465
REMARK  198  A    between atoms: _465  and  _466
REMARK  199  A    between atoms: _471  and  _472
REMARK  200  A    between atoms: _474  and  _476
REMARK  201  A    between atoms: _476  and  _477
REMARK  202  A    between atoms: _476  and  _479
REMARK  203  A    between atoms: _482  and  _484
REMARK  204  A    between atoms: _484  and  _485
REMARK  205  A    between atoms: _487  and  _489
REMARK  206  A    between atoms: _489  and  _490
REMARK  207  A    between atoms: _489  and  _492
REMARK  208  A    between atoms: _492  and  _493
REMARK  209  A    between atoms: _499  and  _501
REMARK  210  A    between atoms: _501  and  _502
REMARK  211  A    between atoms: _504  and  _506
REMARK  212  A    between atoms: _506  and  _507
REMARK  213  A    between atoms: _506  and  _509
REMARK  214  A    between atoms: _509  and  _510
REMARK  215  A    between atoms: _516  and  _518
REMARK  216  A    between atoms: _518  and  _519
REMARK  217  A    between atoms: _521  and  _523
REMARK  218  A    between atoms: _523  and  _524
REMARK  219  A    between atoms: _526  and  _528
REMARK  220  A    between atoms: _528  and  _529
REMARK  221  A    between atoms: _528  and  _531
REMARK  222  A    between atoms: _531  and  _532
REMARK  223  A    between atoms: _532  and  _533
REMARK  224  A    between atoms: _538  and  _540
REMARK  225  A    between atoms: _540  and  _541
REMARK  226  A    between atoms: _543  and  _545
REMARK  227  A    between atoms: _545  and  _546
REMARK  228  A    between atoms: _545  and  _548
REMARK  229  A    between atoms: _548  and  _549
REMARK  230  A    between atoms: _552  and  _554
REMARK  231  A    between atoms: _554  and  _555
REMARK  232  A    between atoms: _557  and  _559
REMARK  233  A    between atoms: _559  and  _560
REMARK  234  A    between atoms: _559  and  _562
REMARK  235  A    between atoms: _562  and  _563
REMARK  236  A    between atoms: _566  and  _568
REMARK  237  A    between atoms: _568  and  _569
REMARK  238  A    between atoms: _568  and  _571
REMARK  239  A    between atoms: _571  and  _572
REMARK  240  A    between atoms: _577  and  _579
REMARK  241  A    between atoms: _579  and  _580
REMARK  242  A    between atoms: _579  and  _582
REMARK  243  A    between atoms: _582  and  _583
REMARK  244  A    between atoms: _586  and  _588
REMARK  245  A    between atoms: _588  and  _589
REMARK  246  A    between atoms: _591  and  _593
REMARK  247  A    between atoms: _593  and  _594
REMARK  248  A    between atoms: _593  and  _596
REMARK  249  A    between atoms: _596  and  _597
REMARK  250  A    between atoms: _600  and  _602
REMARK  251  A    between atoms: _602  and  _603
REMARK  252  A    between atoms: _602  and  _605
REMARK                            x       y       z     vdW  Elec       q    Type
REMARK                         _______ _______ _______ _____ _____    ______ ____
ROOT
ATOM      1  CA  ASN A   2       9.329  44.676   9.090  0.00  0.00    +0.158 C 
ENDROOT
BRANCH   1   4
ATOM      2  C   LEU A   1       7.198  43.759   8.505  0.00  0.00    +0.238 C 
ATOM      3  O   LEU A   1       6.998  43.478   9.688  0.00  0.00    -0.274 OA
ATOM      4  N   ASN A   2       8.316  44.346   8.085  0.00  0.00    -0.297 N 
ATOM      5  H   ASN A   2       8.465  44.563   7.079  0.00  0.00    +0.150 HD
BRANCH   2   6
ATOM      6  CA  LEU A   1       6.141  43.421   7.455  0.00  0.00    +0.145 C 
BRANCH   6   7
ATOM      7  N   LEU A   1       6.630  43.679   6.103  0.00  0.00    -0.238 NA
ATOM      8  H   LEU A   1       7.238  42.982   5.628  0.00  0.00    +0.142 HD
ENDBRANCH   6   7
BRANCH   6   9
ATOM      9  CB  LEU A   1       5.721  41.974   7.673  0.00  0.00    +0.026 C 
BRANCH   9  10
ATOM     10  CG  LEU A   1       4.557  41.404   6.869  0.00  0.00    +0.002 C 
ATOM     11  CD2 LEU A   1       3.253  42.107   7.191  0.00  0.00    +0.000 C 
ATOM     12  CD1 LEU A   1       4.427  39.906   7.127  0.00  0.00    +0.000 C 
ENDBRANCH   9  10
ENDBRANCH   6   9
ENDBRANCH   2   6
ENDBRANCH   1   4
BRANCH   1  13
ATOM     13  C   ASN A   2       8.848  45.849   9.946  0.00  0.00    +0.241 C 
ATOM     14  N   THR A   3       8.864  45.683  11.261  0.00  0.00    -0.296 N 
ATOM     15  H   THR A   3       9.244  44.786  11.625  0.00  0.00    +0.150 HD
ATOM     16  O   ASN A   2       8.468  46.868   9.363  0.00  0.00    -0.273 OA
BRANCH  14  17
ATOM     17  CA  THR A   3       8.393  46.655  12.238  0.00  0.00    +0.164 C 
BRANCH  17  18
ATOM     18  CB  THR A   3       8.075  45.981  13.594  0.00  0.00    +0.136 C 
ATOM     19  CG2 THR A   3       7.112  44.819  13.420  0.00  0.00    +0.034 C 
BRANCH  18  20
ATOM     20  OG1 THR A   3       9.302  45.445  14.122  0.00  0.00    -0.382 OA
ATOM     21  HG1 THR A   3       9.671  44.781  13.487  0.00  0.00    +0.210 HD
ENDBRANCH  18  20
ENDBRANCH  17  18
BRANCH  17  22
ATOM     22  C   THR A   3       9.373  47.775  12.519  0.00  0.00    +0.229 C 
ATOM     23  O   THR A   3       9.187  48.601  13.429  0.00  0.00    -0.286 OA
ENDBRANCH  17  22
ENDBRANCH  14  17
ENDBRANCH   1  13
BRANCH   1  24
ATOM     24  CB  ASN A   2      10.667  44.984   8.421  0.00  0.00    +0.114 C 
BRANCH  24  25
ATOM     25  CG  ASN A   2      11.693  45.418   9.459  0.00  0.00    +0.222 C 
ATOM     26  ND2 ASN A   2      12.335  44.445  10.095  0.00  0.00    -0.329 N 
ATOM     27 HD21 ASN A   2      13.045  44.677  10.819  0.00  0.00    +0.145 HD
ATOM     28 HD22 ASN A   2      12.128  43.451   9.870  0.00  0.00    +0.145 HD
ATOM     29  OD1 ASN A   2      11.887  46.614   9.674  0.00  0.00    -0.275 OA
ENDBRANCH  24  25
ENDBRANCH   1  24
TORSDOF 12
REMARK  Name = ../refined-set-2016/3uri/3uri_pocket.pdb
REMARK  252 active torsions:
REMARK  status: ('A' for Active; 'I' for Inactive)
REMARK    1  A    between atoms: _1  and  _3
REMARK    2  A    between atoms: _3  and  _4
REMARK    3  A    between atoms: _3  and  _6
REMARK    4  A    between atoms: _6  and  _7
REMARK    5  A    between atoms: _10  and  _12
REMARK    6  A    between atoms: _12  and  _13
REMARK    7  A    between atoms: _12  and  _15
REMARK    8  A    between atoms: _15  and  _16
REMARK    9  A    between atoms: _19  and  _21
REMARK   10  A    between atoms: _21  and  _22
REMARK   11  A    between atoms: _21  and  _24
REMARK   12  A    between atoms: _24  and  _25
REMARK   13  A    between atoms: _28  and  _30
REMARK   14  A    between atoms: _30  and  _31
REMARK   15  A    between atoms: _30  and  _33
REMARK   16  A    between atoms: _33  and  _34
REMARK   17  A    between atoms: _37  and  _39
REMARK   18  A    between atoms: _39  and  _40
REMARK   19  A    between atoms: _39  and  _42
REMARK   20  A    between atoms: _42  and  _43
REMARK   21  A    between atoms: _46  and  _48
REMARK   22  A    between atoms: _48  and  _49
REMARK   23  A    between atoms: _52  and  _54
REMARK   24  A    between atoms: _54  and  _55
REMARK   25  A    between atoms: _54  and  _57
REMARK   26  A    between atoms: _57  and  _58
REMARK   27  A    between atoms: _63  and  _64
REMARK   28  A    between atoms: _66  and  _68
REMARK   29  A    between atoms: _68  and  _69
REMARK   30  A    between atoms: _68  and  _71
REMARK   31  A    between atoms: _71  and  _72
REMARK   32  A    between atoms: _75  and  _77
REMARK   33  A    between atoms: _77  and  _78
REMARK   34  A    between atoms: _77  and  _80
REMARK   35  A    between atoms: _80  and  _81
REMARK   36  A    between atoms: _84  and  _86
REMARK   37  A    between atoms: _86  and  _87
REMARK   38  A    between atoms: _86  and  _89
REMARK   39  A    between atoms: _89  and  _90
REMARK   40  A    between atoms: _96  and  _98
REMARK   41  A    between atoms: _98  and  _99
REMARK   42  A    between atoms: _98  and  _101
REMARK   43  A    between atoms: _101  and  _102
REMARK   44  A    between atoms: _105  and  _107
REMARK   45  A    between atoms: _107  and  _108
REMARK   46  A    between atoms: _107  and  _110
REMARK   47  A    between atoms: _110  and  _111
REMARK   48  A    between atoms: _114  and  _116
REMARK   49  A    between atoms: _116  and  _117
REMARK   50  A    between atoms: _119  and  _121
REMARK   51  A    between atoms: _121  and  _122
REMARK   52  A    between atoms: _121  and  _124
REMARK   53  A    between atoms: _124  and  _125
REMARK   54  A    between atoms: _127  and  _129
REMARK   55  A    between atoms: _129  and  _130
REMARK   56  A    between atoms: _129  and  _132
REMARK   57  A    between atoms: _132  and  _133
REMARK   58  A    between atoms: _135  and  _137
REMARK   59  A    between atoms: _137  and  _138
REMARK   60  A    between atoms: _137  and  _140
REMARK   61  A    between atoms: _140  and  _141
REMARK   62  A    between atoms: _144  and  _146
REMARK   63  A    between atoms: _146  and  _147
REMARK   64  A    between atoms: _146  and  _149
REMARK   65  A    between atoms: _149  and  _150
REMARK   66  A    between atoms: _160  and  _162
REMARK   67  A    between atoms: _162  and  _163
REMARK   68  A    between atoms: _162  and  _165
REMARK   69  A    between atoms: _165  and  _166
REMARK   70  A    between atoms: _168  and  _170
REMARK   71  A    between atoms: _170  and  _171
REMARK   72  A    between atoms: _170  and  _173
REMARK   73  A    between atoms: _173  and  _174
REMARK   74  A    between atoms: _177  and  _179
REMARK   75  A    between atoms: _179  and  _180
REMARK   76  A    between atoms: _179  and  _182
REMARK   77  A    between atoms: _182  and  _183
REMARK   78  A    between atoms: _185  and  _187
REMARK   79  A    between atoms: _187  and  _188
REMARK   80  A    between atoms: _187  and  _190
REMARK   81  A    between atoms: _190  and  _191
REMARK   82  A    between atoms: _196  and  _197
REMARK   83  A    between atoms: _199  and  _201
REMARK   84  A    between atoms: _201  and  _202
REMARK   85  A    between atoms: _204  and  _206
REMARK   86  A    between atoms: _206  and  _207
REMARK   87  A    between atoms: _206  and  _209
REMARK   88  A    between atoms: _209  and  _210
REMARK   89  A    between atoms: _213  and  _215
REMARK   90  A    between atoms: _215  and  _216
REMARK   91  A    between atoms: _218  and  _220
REMARK   92  A    between atoms: _220  and  _221
REMARK   93  A    between atoms: _220  and  _223
REMARK   94  A    between atoms: _223  and  _224
REMARK   95  A    between atoms: _226  and  _228
REMARK   96  A    between atoms: _228  and  _229
REMARK   97  A    between atoms: _228  and  _231
REMARK   98  A    between atoms: _231  and  _232
REMARK   99  A    between atoms: _234  and  _236
REMARK  100  A    between atoms: _236  and  _237
REMARK  101  A    between atoms: _236  and  _239
REMARK  102  A    between atoms: _239  and  _240
REMARK  103  A    between atoms: _242  and  _244
REMARK  104  A    between atoms: _244  and  _245
REMARK  105  A    between atoms: _244  and  _247
REMARK  106  A    between atoms: _247  and  _248
REMARK  107  A    between atoms: _250  and  _252
REMARK  108  A    between atoms: _252  and  _253
REMARK  109  A    between atoms: _252  and  _255
REMARK  110  A    between atoms: _255  and  _256
REMARK  111  A    between atoms: _262  and  _264
REMARK  112  A    between atoms: _264  and  _265
REMARK  113  A    between atoms: _264  and  _267
REMARK  114  A    between atoms: _267  and  _268
REMARK  115  A    between atoms: _268  and  _269
REMARK  116  A    between atoms: _272  and  _274
REMARK  117  A    between atoms: _274  and  _275
REMARK  118  A    between atoms: _274  and  _277
REMARK  119  A    between atoms: _277  and  _278
REMARK  120  A    between atoms: _281  and  _283
REMARK  121  A    between atoms: _283  and  _284
REMARK  122  A    between atoms: _283  and  _286
REMARK  123  A    between atoms: _286  and  _287
REMARK  124  A    between atoms: _290  and  _292
REMARK  125  A    between atoms: _292  and  _293
REMARK  126  A    between atoms: _292  and  _295
REMARK  127  A    between atoms: _295  and  _296
REMARK  128  A    between atoms: _299  and  _301
REMARK  129  A    between atoms: _301  and  _302
REMARK  130  A    between atoms: _304  and  _306
REMARK  131  A    between atoms: _306  and  _307
REMARK  132  A    between atoms: _306  and  _309
REMARK  133  A    between atoms: _309  and  _310
REMARK  134  A    between atoms: _313  and  _315
REMARK  135  A    between atoms: _315  and  _316
REMARK  136  A    between atoms: _315  and  _318
REMARK  137  A    between atoms: _318  and  _319
REMARK  138  A    between atoms: _322  and  _324
REMARK  139  A    between atoms: _324  and  _325
REMARK  140  A    between atoms: _328  and  _330
REMARK  141  A    between atoms: _330  and  _331
REMARK  142  A    between atoms: _330  and  _333
REMARK  143  A    between atoms: _333  and  _334
REMARK  144  A    between atoms: _337  and  _339
REMARK  145  A    between atoms: _339  and  _340
REMARK  146  A    between atoms: _339  and  _342
REMARK  147  A    between atoms: _342  and  _343
REMARK  148  A    between atoms: _348  and  _350
REMARK  149  A    between atoms: _350  and  _351
REMARK  150  A    between atoms: _350  and  _353
REMARK  151  A    between atoms: _353  and  _354
REMARK  152  A    between atoms: _357  and  _359
REMARK  153  A    between atoms: _359  and  _360
REMARK  154  A    between atoms: _359  and  _362
REMARK  155  A    between atoms: _362  and  _363
REMARK  156  A    between atoms: _363  and  _364
REMARK  157  A    between atoms: _369  and  _371
REMARK  158  A    between atoms: _371  and  _372
REMARK  159  A    between atoms: _374  and  _376
REMARK  160  A    between atoms: _376  and  _377
REMARK  161  A    between atoms: _376  and  _379
REMARK  162  A    between atoms: _379  and  _380
REMARK  163  A    between atoms: _386  and  _388
REMARK  164  A    between atoms: _388  and  _389
REMARK  165  A    between atoms: _388  and  _391
REMARK  166  A    between atoms: _391  and  _392
REMARK  167  A    between atoms: _395  and  _397
REMARK  168  A    between atoms: _397  and  _398
REMARK  169  A    between atoms: _401  and  _403
REMARK  170  A    between atoms: _403  and  _404
REMARK  171  A    between atoms: _403  and  _406
REMARK  172  A    between atoms: _406  and  _407
REMARK  173  A    between atoms: _410  and  _412
REMARK  174  A    between atoms: _412  and  _413
REMARK  175  A    between atoms: _412  and  _415
REMARK  176  A    between atoms: _415  and  _416
REMARK  177  A    between atoms: _419  and  _421
REMARK  178  A    between atoms: _421  and  _422
REMARK  179  A    between atoms: _424  and  _426
REMARK  180  A    between atoms: _426  and  _427
REMARK  181  A    between atoms: _426  and  _429
REMARK  182  A    between atoms: _429  and  _430
REMARK  183  A    between atoms: _433  and  _435
REMARK  184  A    between atoms: _435  and  _436
REMARK  185  A    between atoms: _435  and  _438
REMARK  186  A    between atoms: _438  and  _439
REMARK  187  A    between atoms: _442  and  _444
REMARK  188  A    between atoms: _444  and  _445
REMARK  189  A    between atoms: _444  and  _447
REMARK  190  A    between atoms: _447  and  _448
REMARK  191  A    between atoms: _451  and  _453
REMARK  192  A    between atoms: _453  and  _454
REMARK  193  A    between atoms: _453  and  _456
REMARK  194  A    between atoms: _456  and  _457
REMARK  195  A    between atoms: _460  and  _462
REMARK  196  A    between atoms: _462  and  _463
REMARK  197  A    between atoms: _462  and  _465
REMARK  198  A    between atoms: _465  and  _466
REMARK  199  A    between atoms: _471  and  _472
REMARK  200  A    between atoms: _474  and  _476
REMARK  201  A    between atoms: _476  and  _477
REMARK  202  A    between atoms: _476  and  _479
REMARK  203  A    between atoms: _482  and  _484
REMARK  204  A    between atoms: _484  and  _485
REMARK  205  A    between atoms: _487  and  _489
REMARK  206  A    between atoms: _489  and  _490
REMARK  207  A    between atoms: _489  and  _492
REMARK  208  A    between atoms: _492  and  _493
REMARK  209  A    between atoms: _499  and  _501
REMARK  210  A    between atoms: _501  and  _502
REMARK  211  A    between atoms: _504  and  _506
REMARK  212  A    between atoms: _506  and  _507
REMARK  213  A    between atoms: _506  and  _509
REMARK  214  A    between atoms: _509  and  _510
REMARK  215  A    between atoms: _516  and  _518
REMARK  216  A    between atoms: _518  and  _519
REMARK  217  A    between atoms: _521  and  _523
REMARK  218  A    between atoms: _523  and  _524
REMARK  219  A    between atoms: _526  and  _528
REMARK  220  A    between atoms: _528  and  _529
REMARK  221  A    between atoms: _528  and  _531
REMARK  222  A    between atoms: _531  and  _532
REMARK  223  A    between atoms: _532  and  _533
REMARK  224  A    between atoms: _538  and  _540
REMARK  225  A    between atoms: _540  and  _541
REMARK  226  A    between atoms: _543  and  _545
REMARK  227  A    between atoms: _545  and  _546
REMARK  228  A    between atoms: _545  and  _548
REMARK  229  A    between atoms: _548  and  _549
REMARK  230  A    between atoms: _552  and  _554
REMARK  231  A    between atoms: _554  and  _555
REMARK  232  A    between atoms: _557  and  _559
REMARK  233  A    between atoms: _559  and  _560
REMARK  234  A    between atoms: _559  and  _562
REMARK  235  A    between atoms: _562  and  _563
REMARK  236  A    between atoms: _566  and  _568
REMARK  237  A    between atoms: _568  and  _569
REMARK  238  A    between atoms: _568  and  _571
REMARK  239  A    between atoms: _571  and  _572
REMARK  240  A    between atoms: _577  and  _579
REMARK  241  A    between atoms: _579  and  _580
REMARK  242  A    between atoms: _579  and  _582
REMARK  243  A    between atoms: _582  and  _583
REMARK  244  A    between atoms: _586  and  _588
REMARK  245  A    between atoms: _588  and  _589
REMARK  246  A    between atoms: _591  and  _593
REMARK  247  A    between atoms: _593  and  _594
REMARK  248  A    between atoms: _593  and  _596
REMARK  249  A    between atoms: _596  and  _597
REMARK  250  A    between atoms: _600  and  _602
REMARK  251  A    between atoms: _602  and  _603
REMARK  252  A    between atoms: _602  and  _605
REMARK                            x       y       z     vdW  Elec       q    Type
REMARK                         _______ _______ _______ _____ _____    ______ ____
ROOT
ATOM      1  CA  GLY A   2       3.579  40.370   2.981  0.00  0.00    +0.176 C 
ENDROOT
BRANCH   1   4
ATOM      2  C   GLN A   1       1.171  40.197   3.356  0.00  0.00    +0.238 C 
ATOM      3  O   GLN A   1       1.372  39.840   4.523  0.00  0.00    -0.274 OA
ATOM      4  N   GLY A   2       2.192  40.502   2.560  0.00  0.00    -0.296 N 
ATOM      5  H   GLY A   2       1.992  40.848   1.600  0.00  0.00    +0.150 HD
BRANCH   2   6
ATOM      6  CA  GLN A   1      -0.250  40.246   2.807  0.00  0.00    +0.145 C 
BRANCH   6   7
ATOM      7  N   GLN A   1      -0.307  40.436   1.376  0.00  0.00    -0.238 NA
ATOM      8  H   GLN A   1      -0.289  39.569   0.802  0.00  0.00    +0.142 HD
ENDBRANCH   6   7
BRANCH   6   9
ATOM      9  CB  GLN A   1      -0.936  38.917   3.166  0.00  0.00    +0.036 C 
BRANCH   9  10
ATOM     10  CG  GLN A   1      -2.411  39.024   3.508  0.00  0.00    +0.087 C 
BRANCH  10  11
ATOM     11  CD  GLN A   1      -2.922  37.856   4.330  0.00  0.00    +0.219 C 
ATOM     12  OE1 GLN A   1      -3.155  37.984   5.534  0.00  0.00    -0.275 OA
ATOM     13  NE2 GLN A   1      -3.102  36.702   3.682  0.00  0.00    -0.329 N 
ATOM     14 HE21 GLN A   1      -3.451  35.867   4.194  0.00  0.00    +0.145 HD
ATOM     15 HE22 GLN A   1      -2.893  36.638   2.665  0.00  0.00    +0.145 HD
ENDBRANCH  10  11
ENDBRANCH   9  10
ENDBRANCH   6   9
ENDBRANCH   2   6
ENDBRANCH   1   4
BRANCH   1  16
ATOM     16  C   GLY A   2       4.036  38.975   3.342  0.00  0.00    +0.243 C 
ATOM     17  O   GLY A   2       5.186  38.737   3.735  0.00  0.00    -0.273 OA
ATOM     18  N   PHE A   3       3.173  37.974   3.242  0.00  0.00    -0.298 N 
ATOM     19  H   PHE A   3       2.224  38.191   2.877  0.00  0.00    +0.150 HD
BRANCH  18  20
ATOM     20  CA  PHE A   3       3.454  36.604   3.603  0.00  0.00    +0.141 C 
BRANCH  20  21
ATOM     21  C   PHE A   3       3.792  35.754   2.384  0.00  0.00    +0.227 C 
ATOM     22  O   PHE A   3       3.244  36.014   1.311  0.00  0.00    -0.286 OA
ENDBRANCH  20  21
BRANCH  20  23
ATOM     23  CB  PHE A   3       2.238  35.921   4.224  0.00  0.00    +0.054 C 
BRANCH  23  24
ATOM     24  CG  PHE A   3       1.704  36.471   5.523  0.00  0.00    -0.020 A 
ATOM     25  CD2 PHE A   3       2.428  36.339   6.698  0.00  0.00    -0.004 A 
ATOM     26  CE2 PHE A   3       1.917  36.834   7.881  0.00  0.00    -0.000 A 
ATOM     27  CZ  PHE A   3       0.685  37.461   7.890  0.00  0.00    -0.000 A 
ATOM     28  CE1 PHE A   3      -0.037  37.604   6.720  0.00  0.00    -0.000 A 
ATOM     29  CD1 PHE A   3       0.472  37.106   5.540  0.00  0.00    -0.004 A 
ENDBRANCH  23  24
ENDBRANCH  20  23
ENDBRANCH  18  20
ENDBRANCH   1  16
TORSDOF 11
REMARK  Name = ../refined-set-2016/3uri/3uri_pocket.pdb
REMARK  252 active torsions:
REMARK  status: ('A' for Active; 'I' for Inactive)
REMARK    1  A    between atoms: _1  and  _3
REMARK    2  A    between atoms: _3  and  _4
REMARK    3  A    between atoms: _3  and  _6
REMARK    4  A    between atoms: _6  and  _7
REMARK    5  A    between atoms: _10  and  _12
REMARK    6  A    between atoms: _12  and  _13
REMARK    7  A    between atoms: _12  and  _15
REMARK    8  A    between atoms: _15  and  _16
REMARK    9  A    between atoms: _19  and  _21
REMARK   10  A    between atoms: _21  and  _22
REMARK   11  A    between atoms: _21  and  _24
REMARK   12  A    between atoms: _24  and  _25
REMARK   13  A    between atoms: _28  and  _30
REMARK   14  A    between atoms: _30  and  _31
REMARK   15  A    between atoms: _30  and  _33
REMARK   16  A    between atoms: _33  and  _34
REMARK   17  A    between atoms: _37  and  _39
REMARK   18  A    between atoms: _39  and  _40
REMARK   19  A    between atoms: _39  and  _42
REMARK   20  A    between atoms: _42  and  _43
REMARK   21  A    between atoms: _46  and  _48
REMARK   22  A    between atoms: _48  and  _49
REMARK   23  A    between atoms: _52  and  _54
REMARK   24  A    between atoms: _54  and  _55
REMARK   25  A    between atoms: _54  and  _57
REMARK   26  A    between atoms: _57  and  _58
REMARK   27  A    between atoms: _63  and  _64
REMARK   28  A    between atoms: _66  and  _68
REMARK   29  A    between atoms: _68  and  _69
REMARK   30  A    between atoms: _68  and  _71
REMARK   31  A    between atoms: _71  and  _72
REMARK   32  A    between atoms: _75  and  _77
REMARK   33  A    between atoms: _77  and  _78
REMARK   34  A    between atoms: _77  and  _80
REMARK   35  A    between atoms: _80  and  _81
REMARK   36  A    between atoms: _84  and  _86
REMARK   37  A    between atoms: _86  and  _87
REMARK   38  A    between atoms: _86  and  _89
REMARK   39  A    between atoms: _89  and  _90
REMARK   40  A    between atoms: _96  and  _98
REMARK   41  A    between atoms: _98  and  _99
REMARK   42  A    between atoms: _98  and  _101
REMARK   43  A    between atoms: _101  and  _102
REMARK   44  A    between atoms: _105  and  _107
REMARK   45  A    between atoms: _107  and  _108
REMARK   46  A    between atoms: _107  and  _110
REMARK   47  A    between atoms: _110  and  _111
REMARK   48  A    between atoms: _114  and  _116
REMARK   49  A    between atoms: _116  and  _117
REMARK   50  A    between atoms: _119  and  _121
REMARK   51  A    between atoms: _121  and  _122
REMARK   52  A    between atoms: _121  and  _124
REMARK   53  A    between atoms: _124  and  _125
REMARK   54  A    between atoms: _127  and  _129
REMARK   55  A    between atoms: _129  and  _130
REMARK   56  A    between atoms: _129  and  _132
REMARK   57  A    between atoms: _132  and  _133
REMARK   58  A    between atoms: _135  and  _137
REMARK   59  A    between atoms: _137  and  _138
REMARK   60  A    between atoms: _137  and  _140
REMARK   61  A    between atoms: _140  and  _141
REMARK   62  A    between atoms: _144  and  _146
REMARK   63  A    between atoms: _146  and  _147
REMARK   64  A    between atoms: _146  and  _149
REMARK   65  A    between atoms: _149  and  _150
REMARK   66  A    between atoms: _160  and  _162
REMARK   67  A    between atoms: _162  and  _163
REMARK   68  A    between atoms: _162  and  _165
REMARK   69  A    between atoms: _165  and  _166
REMARK   70  A    between atoms: _168  and  _170
REMARK   71  A    between atoms: _170  and  _171
REMARK   72  A    between atoms: _170  and  _173
REMARK   73  A    between atoms: _173  and  _174
REMARK   74  A    between atoms: _177  and  _179
REMARK   75  A    between atoms: _179  and  _180
REMARK   76  A    between atoms: _179  and  _182
REMARK   77  A    between atoms: _182  and  _183
REMARK   78  A    between atoms: _185  and  _187
REMARK   79  A    between atoms: _187  and  _188
REMARK   80  A    between atoms: _187  and  _190
REMARK   81  A    between atoms: _190  and  _191
REMARK   82  A    between atoms: _196  and  _197
REMARK   83  A    between atoms: _199  and  _201
REMARK   84  A    between atoms: _201  and  _202
REMARK   85  A    between atoms: _204  and  _206
REMARK   86  A    between atoms: _206  and  _207
REMARK   87  A    between atoms: _206  and  _209
REMARK   88  A    between atoms: _209  and  _210
REMARK   89  A    between atoms: _213  and  _215
REMARK   90  A    between atoms: _215  and  _216
REMARK   91  A    between atoms: _218  and  _220
REMARK   92  A    between atoms: _220  and  _221
REMARK   93  A    between atoms: _220  and  _223
REMARK   94  A    between atoms: _223  and  _224
REMARK   95  A    between atoms: _226  and  _228
REMARK   96  A    between atoms: _228  and  _229
REMARK   97  A    between atoms: _228  and  _231
REMARK   98  A    between atoms: _231  and  _232
REMARK   99  A    between atoms: _234  and  _236
REMARK  100  A    between atoms: _236  and  _237
REMARK  101  A    between atoms: _236  and  _239
REMARK  102  A    between atoms: _239  and  _240
REMARK  103  A    between atoms: _242  and  _244
REMARK  104  A    between atoms: _244  and  _245
REMARK  105  A    between atoms: _244  and  _247
REMARK  106  A    between atoms: _247  and  _248
REMARK  107  A    between atoms: _250  and  _252
REMARK  108  A    between atoms: _252  and  _253
REMARK  109  A    between atoms: _252  and  _255
REMARK  110  A    between atoms: _255  and  _256
REMARK  111  A    between atoms: _262  and  _264
REMARK  112  A    between atoms: _264  and  _265
REMARK  113  A    between atoms: _264  and  _267
REMARK  114  A    between atoms: _267  and  _268
REMARK  115  A    between atoms: _268  and  _269
REMARK  116  A    between atoms: _272  and  _274
REMARK  117  A    between atoms: _274  and  _275
REMARK  118  A    between atoms: _274  and  _277
REMARK  119  A    between atoms: _277  and  _278
REMARK  120  A    between atoms: _281  and  _283
REMARK  121  A    between atoms: _283  and  _284
REMARK  122  A    between atoms: _283  and  _286
REMARK  123  A    between atoms: _286  and  _287
REMARK  124  A    between atoms: _290  and  _292
REMARK  125  A    between atoms: _292  and  _293
REMARK  126  A    between atoms: _292  and  _295
REMARK  127  A    between atoms: _295  and  _296
REMARK  128  A    between atoms: _299  and  _301
REMARK  129  A    between atoms: _301  and  _302
REMARK  130  A    between atoms: _304  and  _306
REMARK  131  A    between atoms: _306  and  _307
REMARK  132  A    between atoms: _306  and  _309
REMARK  133  A    between atoms: _309  and  _310
REMARK  134  A    between atoms: _313  and  _315
REMARK  135  A    between atoms: _315  and  _316
REMARK  136  A    between atoms: _315  and  _318
REMARK  137  A    between atoms: _318  and  _319
REMARK  138  A    between atoms: _322  and  _324
REMARK  139  A    between atoms: _324  and  _325
REMARK  140  A    between atoms: _328  and  _330
REMARK  141  A    between atoms: _330  and  _331
REMARK  142  A    between atoms: _330  and  _333
REMARK  143  A    between atoms: _333  and  _334
REMARK  144  A    between atoms: _337  and  _339
REMARK  145  A    between atoms: _339  and  _340
REMARK  146  A    between atoms: _339  and  _342
REMARK  147  A    between atoms: _342  and  _343
REMARK  148  A    between atoms: _348  and  _350
REMARK  149  A    between atoms: _350  and  _351
REMARK  150  A    between atoms: _350  and  _353
REMARK  151  A    between atoms: _353  and  _354
REMARK  152  A    between atoms: _357  and  _359
REMARK  153  A    between atoms: _359  and  _360
REMARK  154  A    between atoms: _359  and  _362
REMARK  155  A    between atoms: _362  and  _363
REMARK  156  A    between atoms: _363  and  _364
REMARK  157  A    between atoms: _369  and  _371
REMARK  158  A    between atoms: _371  and  _372
REMARK  159  A    between atoms: _374  and  _376
REMARK  160  A    between atoms: _376  and  _377
REMARK  161  A    between atoms: _376  and  _379
REMARK  162  A    between atoms: _379  and  _380
REMARK  163  A    between atoms: _386  and  _388
REMARK  164  A    between atoms: _388  and  _389
REMARK  165  A    between atoms: _388  and  _391
REMARK  166  A    between atoms: _391  and  _392
REMARK  167  A    between atoms: _395  and  _397
REMARK  168  A    between atoms: _397  and  _398
REMARK  169  A    between atoms: _401  and  _403
REMARK  170  A    between atoms: _403  and  _404
REMARK  171  A    between atoms: _403  and  _406
REMARK  172  A    between atoms: _406  and  _407
REMARK  173  A    between atoms: _410  and  _412
REMARK  174  A    between atoms: _412  and  _413
REMARK  175  A    between atoms: _412  and  _415
REMARK  176  A    between atoms: _415  and  _416
REMARK  177  A    between atoms: _419  and  _421
REMARK  178  A    between atoms: _421  and  _422
REMARK  179  A    between atoms: _424  and  _426
REMARK  180  A    between atoms: _426  and  _427
REMARK  181  A    between atoms: _426  and  _429
REMARK  182  A    between atoms: _429  and  _430
REMARK  183  A    between atoms: _433  and  _435
REMARK  184  A    between atoms: _435  and  _436
REMARK  185  A    between atoms: _435  and  _438
REMARK  186  A    between atoms: _438  and  _439
REMARK  187  A    between atoms: _442  and  _444
REMARK  188  A    between atoms: _444  and  _445
REMARK  189  A    between atoms: _444  and  _447
REMARK  190  A    between atoms: _447  and  _448
REMARK  191  A    between atoms: _451  and  _453
REMARK  192  A    between atoms: _453  and  _454
REMARK  193  A    between atoms: _453  and  _456
REMARK  194  A    between atoms: _456  and  _457
REMARK  195  A    between atoms: _460  and  _462
REMARK  196  A    between atoms: _462  and  _463
REMARK  197  A    between atoms: _462  and  _465
REMARK  198  A    between atoms: _465  and  _466
REMARK  199  A    between atoms: _471  and  _472
REMARK  200  A    between atoms: _474  and  _476
REMARK  201  A    between atoms: _476  and  _477
REMARK  202  A    between atoms: _476  and  _479
REMARK  203  A    between atoms: _482  and  _484
REMARK  204  A    between atoms: _484  and  _485
REMARK  205  A    between atoms: _487  and  _489
REMARK  206  A    between atoms: _489  and  _490
REMARK  207  A    between atoms: _489  and  _492
REMARK  208  A    between atoms: _492  and  _493
REMARK  209  A    between atoms: _499  and  _501
REMARK  210  A    between atoms: _501  and  _502
REMARK  211  A    between atoms: _504  and  _506
REMARK  212  A    between atoms: _506  and  _507
REMARK  213  A    between atoms: _506  and  _509
REMARK  214  A    between atoms: _509  and  _510
REMARK  215  A    between atoms: _516  and  _518
REMARK  216  A    between atoms: _518  and  _519
REMARK  217  A    between atoms: _521  and  _523
REMARK  218  A    between atoms: _523  and  _524
REMARK  219  A    between atoms: _526  and  _528
REMARK  220  A    between atoms: _528  and  _529
REMARK  221  A    between atoms: _528  and  _531
REMARK  222  A    between atoms: _531  and  _532
REMARK  223  A    between atoms: _532  and  _533
REMARK  224  A    between atoms: _538  and  _540
REMARK  225  A    between atoms: _540  and  _541
REMARK  226  A    between atoms: _543  and  _545
REMARK  227  A    between atoms: _545  and  _546
REMARK  228  A    between atoms: _545  and  _548
REMARK  229  A    between atoms: _548  and  _549
REMARK  230  A    between atoms: _552  and  _554
REMARK  231  A    between atoms: _554  and  _555
REMARK  232  A    between atoms: _557  and  _559
REMARK  233  A    between atoms: _559  and  _560
REMARK  234  A    between atoms: _559  and  _562
REMARK  235  A    between atoms: _562  and  _563
REMARK  236  A    between atoms: _566  and  _568
REMARK  237  A    between atoms: _568  and  _569
REMARK  238  A    between atoms: _568  and  _571
REMARK  239  A    between atoms: _571  and  _572
REMARK  240  A    between atoms: _577  and  _579
REMARK  241  A    between atoms: _579  and  _580
REMARK  242  A    between atoms: _579  and  _582
REMARK  243  A    between atoms: _582  and  _583
REMARK  244  A    between atoms: _586  and  _588
REMARK  245  A    between atoms: _588  and  _589
REMARK  246  A    between atoms: _591  and  _593
REMARK  247  A    between atoms: _593  and  _594
REMARK  248  A    between atoms: _593  and  _596
REMARK  249  A    between atoms: _596  and  _597
REMARK  250  A    between atoms: _600  and  _602
REMARK  251  A    between atoms: _602  and  _603
REMARK  252  A    between atoms: _602  and  _605
REMARK                            x       y       z     vdW  Elec       q    Type
REMARK                         _______ _______ _______ _____ _____    ______ ____
ROOT
ATOM      1  CA  THR A   6       4.378  27.952  13.398  0.00  0.00    +0.176 C 
ENDROOT
BRANCH   1   2
ATOM      2  C   THR A   6       4.521  26.440  13.486  0.00  0.00    +0.243 C 
ATOM      3  N   THR A   7       4.012  25.878  14.574  0.00  0.00    -0.295 N 
ATOM      4  H   THR A   7       3.486  26.459  15.258  0.00  0.00    +0.150 HD
ATOM      5  O   THR A   6       5.083  25.809  12.596  0.00  0.00    -0.273 OA
BRANCH   3   6
ATOM      6  CA  THR A   7       4.186  24.449  14.817  0.00  0.00    +0.176 C 
BRANCH   6   7
ATOM      7  C   THR A   7       3.246  23.593  13.993  0.00  0.00    +0.243 C 
ATOM      8  N   LEU A   8       1.955  23.871  14.160  0.00  0.00    -0.297 N 
ATOM      9  H   LEU A   8       1.677  24.717  14.696  0.00  0.00    +0.150 HD
ATOM     10  O   THR A   7       3.647  22.709  13.242  0.00  0.00    -0.273 OA
BRANCH   8  11
ATOM     11  CA  LEU A   8       0.929  23.005  13.601  0.00  0.00    +0.149 C 
BRANCH  11  12
ATOM     12  C   LEU A   8       0.454  23.449  12.223  0.00  0.00    +0.241 C 
ATOM     13  O   LEU A   8       0.866  24.467  11.670  0.00  0.00    -0.273 OA
ATOM     14  N   LEU A   9      -0.437  22.636  11.668  0.00  0.00    -0.297 N 
ATOM     15  H   LEU A   9      -0.699  21.766  12.174  0.00  0.00    +0.150 HD
BRANCH  14  16
ATOM     16  CA  LEU A   9      -1.065  22.910  10.380  0.00  0.00    +0.149 C 
BRANCH  16  17
ATOM     17  C   LEU A   9      -2.538  23.243  10.627  0.00  0.00    +0.241 C 
ATOM     18  O   LEU A   9      -3.270  22.333  11.029  0.00  0.00    -0.273 OA
ATOM     19  N   TYR A  10      -2.888  24.494  10.395  0.00  0.00    -0.298 N 
ATOM     20  H   TYR A  10      -2.138  25.132  10.061  0.00  0.00    +0.150 HD
BRANCH  19  21
ATOM     21  CA  TYR A  10      -4.208  25.073  10.556  0.00  0.00    +0.141 C 
BRANCH  21  22
ATOM     22  C   TYR A  10      -4.925  25.246   9.221  0.00  0.00    +0.227 C 
ATOM     23  O   TYR A  10      -4.454  25.939   8.329  0.00  0.00    -0.286 OA
ENDBRANCH  21  22
BRANCH  21  24
ATOM     24  CB  TYR A  10      -4.130  26.437  11.262  0.00  0.00    +0.054 C 
BRANCH  24  25
ATOM     25  CG  TYR A  10      -3.568  26.336  12.658  0.00  0.00    -0.020 A 
ATOM     26  CD2 TYR A  10      -4.396  26.279  13.773  0.00  0.00    -0.001 A 
ATOM     27  CE2 TYR A  10      -3.879  26.187  15.048  0.00  0.00    +0.036 A 
ATOM     28  CZ  TYR A  10      -2.509  26.149  15.216  0.00  0.00    +0.134 A 
ATOM     29  CE1 TYR A  10      -1.667  26.202  14.127  0.00  0.00    +0.036 A 
ATOM     30  CD1 TYR A  10      -2.191  26.296  12.851  0.00  0.00    -0.001 A 
BRANCH  28  31
ATOM     31  OH  TYR A  10      -1.980  26.054  16.480  0.00  0.00    -0.506 OA
ATOM     32  HH  TYR A  10      -2.715  26.027  17.143  0.00  0.00    +0.292 HD
ENDBRANCH  28  31
ENDBRANCH  24  25
ENDBRANCH  21  24
ENDBRANCH  19  21
ENDBRANCH  16  17
BRANCH  16  33
ATOM     33  CB  LEU A   9      -0.903  21.721   9.444  0.00  0.00    +0.029 C 
BRANCH  33  34
ATOM     34  CG  LEU A   9      -1.829  21.590   8.238  0.00  0.00    +0.002 C 
ATOM     35  CD2 LEU A   9      -1.524  20.316   7.459  0.00  0.00    +0.000 C 
ATOM     36  CD1 LEU A   9      -1.717  22.812   7.343  0.00  0.00    +0.000 C 
ENDBRANCH  33  34
ENDBRANCH  16  33
ENDBRANCH  14  16
ENDBRANCH  11  12
BRANCH  11  37
ATOM     37  CB  LEU A   8      -0.252  22.957  14.576  0.00  0.00    +0.029 C 
BRANCH  37  38
ATOM     38  CG  LEU A   8       0.050  22.412  15.968  0.00  0.00    +0.002 C 
ATOM     39  CD2 LEU A   8      -1.217  21.918  16.635  0.00  0.00    +0.000 C 
ATOM     40  CD1 LEU A   8       1.086  21.298  15.905  0.00  0.00    +0.000 C 
ENDBRANCH  37  38
ENDBRANCH  11  37
ENDBRANCH   8  11
ENDBRANCH   6   7
BRANCH   6  41
ATOM     41  CB  THR A   7       3.946  24.149  16.313  0.00  0.00    +0.137 C 
ATOM     42  CG2 THR A   7       4.241  22.695  16.630  0.00  0.00    +0.034 C 
BRANCH  41  43
ATOM     43  OG1 THR A   7       4.851  24.967  17.064  0.00  0.00    -0.382 OA
ATOM     44  HG1 THR A   7       5.782  24.746  16.810  0.00  0.00    +0.210 HD
ENDBRANCH  41  43
ENDBRANCH   6  41
ENDBRANCH   3   6
ENDBRANCH   1   2
BRANCH   1  47
ATOM     45  C   GLY A   5       6.341  29.384  13.506  0.00  0.00    +0.243 C 
ATOM     46  O   GLY A   5       6.051  29.702  14.661  0.00  0.00    -0.273 OA
ATOM     47  N   THR A   6       5.583  28.537  12.815  0.00  0.00    -0.295 N 
ATOM     48  H   THR A   6       5.853  28.287  11.842  0.00  0.00    +0.150 HD
BRANCH  45  49
ATOM     49  CA  GLY A   5       7.561  29.958  12.821  0.00  0.00    +0.176 C 
BRANCH  49  52
ATOM     50  C   THR A   4       8.108  28.332  11.097  0.00  0.00    +0.243 C 
ATOM     51  O   THR A   4       8.419  27.466  11.921  0.00  0.00    -0.273 OA
ATOM     52  N   GLY A   5       7.686  29.545  11.434  0.00  0.00    -0.295 N 
ATOM     53  H   GLY A   5       7.438  30.220  10.682  0.00  0.00    +0.150 HD
BRANCH  50  54
ATOM     54  CA  THR A   4       8.185  28.035   9.605  0.00  0.00    +0.176 C 
BRANCH  54  57
ATOM     55  C   ASP A   3       5.983  28.766   8.923  0.00  0.00    +0.241 C 
ATOM     56  O   ASP A   3       5.470  27.891   9.621  0.00  0.00    -0.273 OA
ATOM     57  N   THR A   4       7.306  28.931   8.854  0.00  0.00    -0.295 N 
ATOM     58  H   THR A   4       7.709  29.692   8.270  0.00  0.00    +0.150 HD
BRANCH  55  59
ATOM     59  CA  ASP A   3       5.097  29.684   8.103  0.00  0.00    +0.160 C 
BRANCH  59  61
ATOM     60  C   ALA A   2       4.820  29.557   5.689  0.00  0.00    +0.241 C 
ATOM     61  N   ASP A   3       4.637  29.008   6.883  0.00  0.00    -0.297 N 
ATOM     62  H   ASP A   3       4.161  28.086   6.956  0.00  0.00    +0.150 HD
ATOM     63  O   ALA A   2       5.493  30.577   5.512  0.00  0.00    -0.273 OA
BRANCH  60  64
ATOM     64  CA  ALA A   2       4.121  28.865   4.518  0.00  0.00    +0.149 C 
ATOM     65  CB  ALA A   2       5.089  28.515   3.412  0.00  0.00    +0.031 C 
BRANCH  64  68
ATOM     66  C   ILE A   1       1.826  29.651   4.568  0.00  0.00    +0.238 C 
ATOM     67  O   ILE A   1       1.482  28.710   5.283  0.00  0.00    -0.274 OA
ATOM     68  N   ALA A   2       3.053  29.755   4.061  0.00  0.00    -0.297 N 
ATOM     69  H   ALA A   2       3.253  30.473   3.336  0.00  0.00    +0.150 HD
BRANCH  66  70
ATOM     70  CA  ILE A   1       0.856  30.774   4.213  0.00  0.00    +0.145 C 
BRANCH  70  71
ATOM     71  N   ILE A   1      -0.525  30.307   4.256  0.00  0.00    -0.238 NA
ATOM     72  H   ILE A   1      -0.889  29.895   5.139  0.00  0.00    +0.142 HD
ENDBRANCH  70  71
BRANCH  70  73
ATOM     73  CB  ILE A   1       1.140  31.951   5.168  0.00  0.00    +0.025 C 
ATOM     74  CG2 ILE A   1       0.335  33.183   4.781  0.00  0.00    +0.002 C 
BRANCH  73  75
ATOM     75  CG1 ILE A   1       0.927  31.602   6.643  0.00  0.00    +0.002 C 
ATOM     76  CD1 ILE A   1       1.092  32.793   7.567  0.00  0.00    +0.000 C 
ENDBRANCH  73  75
ENDBRANCH  70  73
ENDBRANCH  66  70
ENDBRANCH  64  68
ENDBRANCH  60  64
ENDBRANCH  59  61
BRANCH  59  77
ATOM     77  CB  ASP A   3       3.865  30.143   8.879  0.00  0.00    +0.143 C 
BRANCH  77  78
ATOM     78  CG  ASP A   3       4.121  30.888  10.164  0.00  0.00    +0.367 C 
ATOM     79  OD2 ASP A   3       5.137  30.628  10.833  0.00  0.00    -0.246 OA
ATOM     80  OD1 ASP A   3       3.293  31.755  10.523  0.00  0.00    -0.246 OA
ENDBRANCH  77  78
ENDBRANCH  59  77
ENDBRANCH  55  59
ENDBRANCH  54  57
BRANCH  54  81
ATOM     81  CB  THR A   4       9.650  28.128   9.142  0.00  0.00    +0.137 C 
ATOM     82  CG2 THR A   4       9.777  27.730   7.681  0.00  0.00    +0.034 C 
BRANCH  81  83
ATOM     83  OG1 THR A   4      10.091  29.488   9.235  0.00  0.00    -0.382 OA
ATOM     84  HG1 THR A   4       9.524  30.058   8.658  0.00  0.00    +0.210 HD
ENDBRANCH  81  83
ENDBRANCH  54  81
ENDBRANCH  50  54
ENDBRANCH  49  52
ENDBRANCH  45  49
ENDBRANCH   1  47
BRANCH   1  85
ATOM     85  CB  THR A   6       3.116  28.296  12.591  0.00  0.00    +0.137 C 
ATOM     86  CG2 THR A   6       1.952  27.391  12.957  0.00  0.00    +0.034 C 
BRANCH  85  87
ATOM     87  OG1 THR A   6       2.707  29.625  12.925  0.00  0.00    -0.382 OA
ATOM     88  HG1 THR A   6       3.434  30.259  12.701  0.00  0.00    +0.210 HD
ENDBRANCH  85  87
ENDBRANCH   1  85
TORSDOF 37
REMARK  Name = ../refined-set-2016/3uri/3uri_pocket.pdb
REMARK  252 active torsions:
REMARK  status: ('A' for Active; 'I' for Inactive)
REMARK    1  A    between atoms: _1  and  _3
REMARK    2  A    between atoms: _3  and  _4
REMARK    3  A    between atoms: _3  and  _6
REMARK    4  A    between atoms: _6  and  _7
REMARK    5  A    between atoms: _10  and  _12
REMARK    6  A    between atoms: _12  and  _13
REMARK    7  A    between atoms: _12  and  _15
REMARK    8  A    between atoms: _15  and  _16
REMARK    9  A    between atoms: _19  and  _21
REMARK   10  A    between atoms: _21  and  _22
REMARK   11  A    between atoms: _21  and  _24
REMARK   12  A    between atoms: _24  and  _25
REMARK   13  A    between atoms: _28  and  _30
REMARK   14  A    between atoms: _30  and  _31
REMARK   15  A    between atoms: _30  and  _33
REMARK   16  A    between atoms: _33  and  _34
REMARK   17  A    between atoms: _37  and  _39
REMARK   18  A    between atoms: _39  and  _40
REMARK   19  A    between atoms: _39  and  _42
REMARK   20  A    between atoms: _42  and  _43
REMARK   21  A    between atoms: _46  and  _48
REMARK   22  A    between atoms: _48  and  _49
REMARK   23  A    between atoms: _52  and  _54
REMARK   24  A    between atoms: _54  and  _55
REMARK   25  A    between atoms: _54  and  _57
REMARK   26  A    between atoms: _57  and  _58
REMARK   27  A    between atoms: _63  and  _64
REMARK   28  A    between atoms: _66  and  _68
REMARK   29  A    between atoms: _68  and  _69
REMARK   30  A    between atoms: _68  and  _71
REMARK   31  A    between atoms: _71  and  _72
REMARK   32  A    between atoms: _75  and  _77
REMARK   33  A    between atoms: _77  and  _78
REMARK   34  A    between atoms: _77  and  _80
REMARK   35  A    between atoms: _80  and  _81
REMARK   36  A    between atoms: _84  and  _86
REMARK   37  A    between atoms: _86  and  _87
REMARK   38  A    between atoms: _86  and  _89
REMARK   39  A    between atoms: _89  and  _90
REMARK   40  A    between atoms: _96  and  _98
REMARK   41  A    between atoms: _98  and  _99
REMARK   42  A    between atoms: _98  and  _101
REMARK   43  A    between atoms: _101  and  _102
REMARK   44  A    between atoms: _105  and  _107
REMARK   45  A    between atoms: _107  and  _108
REMARK   46  A    between atoms: _107  and  _110
REMARK   47  A    between atoms: _110  and  _111
REMARK   48  A    between atoms: _114  and  _116
REMARK   49  A    between atoms: _116  and  _117
REMARK   50  A    between atoms: _119  and  _121
REMARK   51  A    between atoms: _121  and  _122
REMARK   52  A    between atoms: _121  and  _124
REMARK   53  A    between atoms: _124  and  _125
REMARK   54  A    between atoms: _127  and  _129
REMARK   55  A    between atoms: _129  and  _130
REMARK   56  A    between atoms: _129  and  _132
REMARK   57  A    between atoms: _132  and  _133
REMARK   58  A    between atoms: _135  and  _137
REMARK   59  A    between atoms: _137  and  _138
REMARK   60  A    between atoms: _137  and  _140
REMARK   61  A    between atoms: _140  and  _141
REMARK   62  A    between atoms: _144  and  _146
REMARK   63  A    between atoms: _146  and  _147
REMARK   64  A    between atoms: _146  and  _149
REMARK   65  A    between atoms: _149  and  _150
REMARK   66  A    between atoms: _160  and  _162
REMARK   67  A    between atoms: _162  and  _163
REMARK   68  A    between atoms: _162  and  _165
REMARK   69  A    between atoms: _165  and  _166
REMARK   70  A    between atoms: _168  and  _170
REMARK   71  A    between atoms: _170  and  _171
REMARK   72  A    between atoms: _170  and  _173
REMARK   73  A    between atoms: _173  and  _174
REMARK   74  A    between atoms: _177  and  _179
REMARK   75  A    between atoms: _179  and  _180
REMARK   76  A    between atoms: _179  and  _182
REMARK   77  A    between atoms: _182  and  _183
REMARK   78  A    between atoms: _185  and  _187
REMARK   79  A    between atoms: _187  and  _188
REMARK   80  A    between atoms: _187  and  _190
REMARK   81  A    between atoms: _190  and  _191
REMARK   82  A    between atoms: _196  and  _197
REMARK   83  A    between atoms: _199  and  _201
REMARK   84  A    between atoms: _201  and  _202
REMARK   85  A    between atoms: _204  and  _206
REMARK   86  A    between atoms: _206  and  _207
REMARK   87  A    between atoms: _206  and  _209
REMARK   88  A    between atoms: _209  and  _210
REMARK   89  A    between atoms: _213  and  _215
REMARK   90  A    between atoms: _215  and  _216
REMARK   91  A    between atoms: _218  and  _220
REMARK   92  A    between atoms: _220  and  _221
REMARK   93  A    between atoms: _220  and  _223
REMARK   94  A    between atoms: _223  and  _224
REMARK   95  A    between atoms: _226  and  _228
REMARK   96  A    between atoms: _228  and  _229
REMARK   97  A    between atoms: _228  and  _231
REMARK   98  A    between atoms: _231  and  _232
REMARK   99  A    between atoms: _234  and  _236
REMARK  100  A    between atoms: _236  and  _237
REMARK  101  A    between atoms: _236  and  _239
REMARK  102  A    between atoms: _239  and  _240
REMARK  103  A    between atoms: _242  and  _244
REMARK  104  A    between atoms: _244  and  _245
REMARK  105  A    between atoms: _244  and  _247
REMARK  106  A    between atoms: _247  and  _248
REMARK  107  A    between atoms: _250  and  _252
REMARK  108  A    between atoms: _252  and  _253
REMARK  109  A    between atoms: _252  and  _255
REMARK  110  A    between atoms: _255  and  _256
REMARK  111  A    between atoms: _262  and  _264
REMARK  112  A    between atoms: _264  and  _265
REMARK  113  A    between atoms: _264  and  _267
REMARK  114  A    between atoms: _267  and  _268
REMARK  115  A    between atoms: _268  and  _269
REMARK  116  A    between atoms: _272  and  _274
REMARK  117  A    between atoms: _274  and  _275
REMARK  118  A    between atoms: _274  and  _277
REMARK  119  A    between atoms: _277  and  _278
REMARK  120  A    between atoms: _281  and  _283
REMARK  121  A    between atoms: _283  and  _284
REMARK  122  A    between atoms: _283  and  _286
REMARK  123  A    between atoms: _286  and  _287
REMARK  124  A    between atoms: _290  and  _292
REMARK  125  A    between atoms: _292  and  _293
REMARK  126  A    between atoms: _292  and  _295
REMARK  127  A    between atoms: _295  and  _296
REMARK  128  A    between atoms: _299  and  _301
REMARK  129  A    between atoms: _301  and  _302
REMARK  130  A    between atoms: _304  and  _306
REMARK  131  A    between atoms: _306  and  _307
REMARK  132  A    between atoms: _306  and  _309
REMARK  133  A    between atoms: _309  and  _310
REMARK  134  A    between atoms: _313  and  _315
REMARK  135  A    between atoms: _315  and  _316
REMARK  136  A    between atoms: _315  and  _318
REMARK  137  A    between atoms: _318  and  _319
REMARK  138  A    between atoms: _322  and  _324
REMARK  139  A    between atoms: _324  and  _325
REMARK  140  A    between atoms: _328  and  _330
REMARK  141  A    between atoms: _330  and  _331
REMARK  142  A    between atoms: _330  and  _333
REMARK  143  A    between atoms: _333  and  _334
REMARK  144  A    between atoms: _337  and  _339
REMARK  145  A    between atoms: _339  and  _340
REMARK  146  A    between atoms: _339  and  _342
REMARK  147  A    between atoms: _342  and  _343
REMARK  148  A    between atoms: _348  and  _350
REMARK  149  A    between atoms: _350  and  _351
REMARK  150  A    between atoms: _350  and  _353
REMARK  151  A    between atoms: _353  and  _354
REMARK  152  A    between atoms: _357  and  _359
REMARK  153  A    between atoms: _359  and  _360
REMARK  154  A    between atoms: _359  and  _362
REMARK  155  A    between atoms: _362  and  _363
REMARK  156  A    between atoms: _363  and  _364
REMARK  157  A    between atoms: _369  and  _371
REMARK  158  A    between atoms: _371  and  _372
REMARK  159  A    between atoms: _374  and  _376
REMARK  160  A    between atoms: _376  and  _377
REMARK  161  A    between atoms: _376  and  _379
REMARK  162  A    between atoms: _379  and  _380
REMARK  163  A    between atoms: _386  and  _388
REMARK  164  A    between atoms: _388  and  _389
REMARK  165  A    between atoms: _388  and  _391
REMARK  166  A    between atoms: _391  and  _392
REMARK  167  A    between atoms: _395  and  _397
REMARK  168  A    between atoms: _397  and  _398
REMARK  169  A    between atoms: _401  and  _403
REMARK  170  A    between atoms: _403  and  _404
REMARK  171  A    between atoms: _403  and  _406
REMARK  172  A    between atoms: _406  and  _407
REMARK  173  A    between atoms: _410  and  _412
REMARK  174  A    between atoms: _412  and  _413
REMARK  175  A    between atoms: _412  and  _415
REMARK  176  A    between atoms: _415  and  _416
REMARK  177  A    between atoms: _419  and  _421
REMARK  178  A    between atoms: _421  and  _422
REMARK  179  A    between atoms: _424  and  _426
REMARK  180  A    between atoms: _426  and  _427
REMARK  181  A    between atoms: _426  and  _429
REMARK  182  A    between atoms: _429  and  _430
REMARK  183  A    between atoms: _433  and  _435
REMARK  184  A    between atoms: _435  and  _436
REMARK  185  A    between atoms: _435  and  _438
REMARK  186  A    between atoms: _438  and  _439
REMARK  187  A    between atoms: _442  and  _444
REMARK  188  A    between atoms: _444  and  _445
REMARK  189  A    between atoms: _444  and  _447
REMARK  190  A    between atoms: _447  and  _448
REMARK  191  A    between atoms: _451  and  _453
REMARK  192  A    between atoms: _453  and  _454
REMARK  193  A    between atoms: _453  and  _456
REMARK  194  A    between atoms: _456  and  _457
REMARK  195  A    between atoms: _460  and  _462
REMARK  196  A    between atoms: _462  and  _463
REMARK  197  A    between atoms: _462  and  _465
REMARK  198  A    between atoms: _465  and  _466
REMARK  199  A    between atoms: _471  and  _472
REMARK  200  A    between atoms: _474  and  _476
REMARK  201  A    between atoms: _476  and  _477
REMARK  202  A    between atoms: _476  and  _479
REMARK  203  A    between atoms: _482  and  _484
REMARK  204  A    between atoms: _484  and  _485
REMARK  205  A    between atoms: _487  and  _489
REMARK  206  A    between atoms: _489  and  _490
REMARK  207  A    between atoms: _489  and  _492
REMARK  208  A    between atoms: _492  and  _493
REMARK  209  A    between atoms: _499  and  _501
REMARK  210  A    between atoms: _501  and  _502
REMARK  211  A    between atoms: _504  and  _506
REMARK  212  A    between atoms: _506  and  _507
REMARK  213  A    between atoms: _506  and  _509
REMARK  214  A    between atoms: _509  and  _510
REMARK  215  A    between atoms: _516  and  _518
REMARK  216  A    between atoms: _518  and  _519
REMARK  217  A    between atoms: _521  and  _523
REMARK  218  A    between atoms: _523  and  _524
REMARK  219  A    between atoms: _526  and  _528
REMARK  220  A    between atoms: _528  and  _529
REMARK  221  A    between atoms: _528  and  _531
REMARK  222  A    between atoms: _531  and  _532
REMARK  223  A    between atoms: _532  and  _533
REMARK  224  A    between atoms: _538  and  _540
REMARK  225  A    between atoms: _540  and  _541
REMARK  226  A    between atoms: _543  and  _545
REMARK  227  A    between atoms: _545  and  _546
REMARK  228  A    between atoms: _545  and  _548
REMARK  229  A    between atoms: _548  and  _549
REMARK  230  A    between atoms: _552  and  _554
REMARK  231  A    between atoms: _554  and  _555
REMARK  232  A    between atoms: _557  and  _559
REMARK  233  A    between atoms: _559  and  _560
REMARK  234  A    between atoms: _559  and  _562
REMARK  235  A    between atoms: _562  and  _563
REMARK  236  A    between atoms: _566  and  _568
REMARK  237  A    between atoms: _568  and  _569
REMARK  238  A    between atoms: _568  and  _571
REMARK  239  A    between atoms: _571  and  _572
REMARK  240  A    between atoms: _577  and  _579
REMARK  241  A    between atoms: _579  and  _580
REMARK  242  A    between atoms: _579  and  _582
REMARK  243  A    between atoms: _582  and  _583
REMARK  244  A    between atoms: _586  and  _588
REMARK  245  A    between atoms: _588  and  _589
REMARK  246  A    between atoms: _591  and  _593
REMARK  247  A    between atoms: _593  and  _594
REMARK  248  A    between atoms: _593  and  _596
REMARK  249  A    between atoms: _596  and  _597
REMARK  250  A    between atoms: _600  and  _602
REMARK  251  A    between atoms: _602  and  _603
REMARK  252  A    between atoms: _602  and  _605
REMARK                            x       y       z     vdW  Elec       q    Type
REMARK                         _______ _______ _______ _____ _____    ______ ____
ROOT
ATOM      1  C   VAL A   1      -6.817  22.348  24.580  0.00  0.00    +0.238 C 
ATOM      2  O   VAL A   1      -5.782  22.932  24.277  0.00  0.00    -0.274 OA
ATOM      3  N   GLY A   2      -8.000  22.575  24.023  0.00  0.00    -0.297 N 
ATOM      4  H   GLY A   2      -8.815  22.033  24.375  0.00  0.00    +0.150 HD
ENDROOT
BRANCH   1   5
ATOM      5  CA  VAL A   1      -6.833  21.272  25.664  0.00  0.00    +0.145 C 
BRANCH   5   6
ATOM      6  CB  VAL A   1      -6.526  19.905  25.029  0.00  0.00    +0.025 C 
ATOM      7  CG2 VAL A   1      -6.588  18.804  26.079  0.00  0.00    +0.002 C 
ATOM      8  CG1 VAL A   1      -5.166  19.912  24.346  0.00  0.00    +0.002 C 
ENDBRANCH   5   6
BRANCH   5   9
ATOM      9  N   VAL A   1      -8.123  21.285  26.344  0.00  0.00    -0.238 NA
ATOM     10  H   VAL A   1      -8.843  20.582  26.082  0.00  0.00    +0.142 HD
ENDBRANCH   5   9
ENDBRANCH   1   5
BRANCH   3  11
ATOM     11  CA  GLY A   2      -8.229  23.528  22.957  0.00  0.00    +0.163 C 
BRANCH  11  12
ATOM     12  C   GLY A   2      -7.750  23.001  21.617  0.00  0.00    +0.229 C 
ATOM     13  O   GLY A   2      -6.821  23.559  21.032  0.00  0.00    -0.286 OA
ENDBRANCH  11  12
ENDBRANCH   3  11
TORSDOF 5
REMARK  Name = ../refined-set-2016/3uri/3uri_pocket.pdb
REMARK  252 active torsions:
REMARK  status: ('A' for Active; 'I' for Inactive)
REMARK    1  A    between atoms: _1  and  _3
REMARK    2  A    between atoms: _3  and  _4
REMARK    3  A    between atoms: _3  and  _6
REMARK    4  A    between atoms: _6  and  _7
REMARK    5  A    between atoms: _10  and  _12
REMARK    6  A    between atoms: _12  and  _13
REMARK    7  A    between atoms: _12  and  _15
REMARK    8  A    between atoms: _15  and  _16
REMARK    9  A    between atoms: _19  and  _21
REMARK   10  A    between atoms: _21  and  _22
REMARK   11  A    between atoms: _21  and  _24
REMARK   12  A    between atoms: _24  and  _25
REMARK   13  A    between atoms: _28  and  _30
REMARK   14  A    between atoms: _30  and  _31
REMARK   15  A    between atoms: _30  and  _33
REMARK   16  A    between atoms: _33  and  _34
REMARK   17  A    between atoms: _37  and  _39
REMARK   18  A    between atoms: _39  and  _40
REMARK   19  A    between atoms: _39  and  _42
REMARK   20  A    between atoms: _42  and  _43
REMARK   21  A    between atoms: _46  and  _48
REMARK   22  A    between atoms: _48  and  _49
REMARK   23  A    between atoms: _52  and  _54
REMARK   24  A    between atoms: _54  and  _55
REMARK   25  A    between atoms: _54  and  _57
REMARK   26  A    between atoms: _57  and  _58
REMARK   27  A    between atoms: _63  and  _64
REMARK   28  A    between atoms: _66  and  _68
REMARK   29  A    between atoms: _68  and  _69
REMARK   30  A    between atoms: _68  and  _71
REMARK   31  A    between atoms: _71  and  _72
REMARK   32  A    between atoms: _75  and  _77
REMARK   33  A    between atoms: _77  and  _78
REMARK   34  A    between atoms: _77  and  _80
REMARK   35  A    between atoms: _80  and  _81
REMARK   36  A    between atoms: _84  and  _86
REMARK   37  A    between atoms: _86  and  _87
REMARK   38  A    between atoms: _86  and  _89
REMARK   39  A    between atoms: _89  and  _90
REMARK   40  A    between atoms: _96  and  _98
REMARK   41  A    between atoms: _98  and  _99
REMARK   42  A    between atoms: _98  and  _101
REMARK   43  A    between atoms: _101  and  _102
REMARK   44  A    between atoms: _105  and  _107
REMARK   45  A    between atoms: _107  and  _108
REMARK   46  A    between atoms: _107  and  _110
REMARK   47  A    between atoms: _110  and  _111
REMARK   48  A    between atoms: _114  and  _116
REMARK   49  A    between atoms: _116  and  _117
REMARK   50  A    between atoms: _119  and  _121
REMARK   51  A    between atoms: _121  and  _122
REMARK   52  A    between atoms: _121  and  _124
REMARK   53  A    between atoms: _124  and  _125
REMARK   54  A    between atoms: _127  and  _129
REMARK   55  A    between atoms: _129  and  _130
REMARK   56  A    between atoms: _129  and  _132
REMARK   57  A    between atoms: _132  and  _133
REMARK   58  A    between atoms: _135  and  _137
REMARK   59  A    between atoms: _137  and  _138
REMARK   60  A    between atoms: _137  and  _140
REMARK   61  A    between atoms: _140  and  _141
REMARK   62  A    between atoms: _144  and  _146
REMARK   63  A    between atoms: _146  and  _147
REMARK   64  A    between atoms: _146  and  _149
REMARK   65  A    between atoms: _149  and  _150
REMARK   66  A    between atoms: _160  and  _162
REMARK   67  A    between atoms: _162  and  _163
REMARK   68  A    between atoms: _162  and  _165
REMARK   69  A    between atoms: _165  and  _166
REMARK   70  A    between atoms: _168  and  _170
REMARK   71  A    between atoms: _170  and  _171
REMARK   72  A    between atoms: _170  and  _173
REMARK   73  A    between atoms: _173  and  _174
REMARK   74  A    between atoms: _177  and  _179
REMARK   75  A    between atoms: _179  and  _180
REMARK   76  A    between atoms: _179  and  _182
REMARK   77  A    between atoms: _182  and  _183
REMARK   78  A    between atoms: _185  and  _187
REMARK   79  A    between atoms: _187  and  _188
REMARK   80  A    between atoms: _187  and  _190
REMARK   81  A    between atoms: _190  and  _191
REMARK   82  A    between atoms: _196  and  _197
REMARK   83  A    between atoms: _199  and  _201
REMARK   84  A    between atoms: _201  and  _202
REMARK   85  A    between atoms: _204  and  _206
REMARK   86  A    between atoms: _206  and  _207
REMARK   87  A    between atoms: _206  and  _209
REMARK   88  A    between atoms: _209  and  _210
REMARK   89  A    between atoms: _213  and  _215
REMARK   90  A    between atoms: _215  and  _216
REMARK   91  A    between atoms: _218  and  _220
REMARK   92  A    between atoms: _220  and  _221
REMARK   93  A    between atoms: _220  and  _223
REMARK   94  A    between atoms: _223  and  _224
REMARK   95  A    between atoms: _226  and  _228
REMARK   96  A    between atoms: _228  and  _229
REMARK   97  A    between atoms: _228  and  _231
REMARK   98  A    between atoms: _231  and  _232
REMARK   99  A    between atoms: _234  and  _236
REMARK  100  A    between atoms: _236  and  _237
REMARK  101  A    between atoms: _236  and  _239
REMARK  102  A    between atoms: _239  and  _240
REMARK  103  A    between atoms: _242  and  _244
REMARK  104  A    between atoms: _244  and  _245
REMARK  105  A    between atoms: _244  and  _247
REMARK  106  A    between atoms: _247  and  _248
REMARK  107  A    between atoms: _250  and  _252
REMARK  108  A    between atoms: _252  and  _253
REMARK  109  A    between atoms: _252  and  _255
REMARK  110  A    between atoms: _255  and  _256
REMARK  111  A    between atoms: _262  and  _264
REMARK  112  A    between atoms: _264  and  _265
REMARK  113  A    between atoms: _264  and  _267
REMARK  114  A    between atoms: _267  and  _268
REMARK  115  A    between atoms: _268  and  _269
REMARK  116  A    between atoms: _272  and  _274
REMARK  117  A    between atoms: _274  and  _275
REMARK  118  A    between atoms: _274  and  _277
REMARK  119  A    between atoms: _277  and  _278
REMARK  120  A    between atoms: _281  and  _283
REMARK  121  A    between atoms: _283  and  _284
REMARK  122  A    between atoms: _283  and  _286
REMARK  123  A    between atoms: _286  and  _287
REMARK  124  A    between atoms: _290  and  _292
REMARK  125  A    between atoms: _292  and  _293
REMARK  126  A    between atoms: _292  and  _295
REMARK  127  A    between atoms: _295  and  _296
REMARK  128  A    between atoms: _299  and  _301
REMARK  129  A    between atoms: _301  and  _302
REMARK  130  A    between atoms: _304  and  _306
REMARK  131  A    between atoms: _306  and  _307
REMARK  132  A    between atoms: _306  and  _309
REMARK  133  A    between atoms: _309  and  _310
REMARK  134  A    between atoms: _313  and  _315
REMARK  135  A    between atoms: _315  and  _316
REMARK  136  A    between atoms: _315  and  _318
REMARK  137  A    between atoms: _318  and  _319
REMARK  138  A    between atoms: _322  and  _324
REMARK  139  A    between atoms: _324  and  _325
REMARK  140  A    between atoms: _328  and  _330
REMARK  141  A    between atoms: _330  and  _331
REMARK  142  A    between atoms: _330  and  _333
REMARK  143  A    between atoms: _333  and  _334
REMARK  144  A    between atoms: _337  and  _339
REMARK  145  A    between atoms: _339  and  _340
REMARK  146  A    between atoms: _339  and  _342
REMARK  147  A    between atoms: _342  and  _343
REMARK  148  A    between atoms: _348  and  _350
REMARK  149  A    between atoms: _350  and  _351
REMARK  150  A    between atoms: _350  and  _353
REMARK  151  A    between atoms: _353  and  _354
REMARK  152  A    between atoms: _357  and  _359
REMARK  153  A    between atoms: _359  and  _360
REMARK  154  A    between atoms: _359  and  _362
REMARK  155  A    between atoms: _362  and  _363
REMARK  156  A    between atoms: _363  and  _364
REMARK  157  A    between atoms: _369  and  _371
REMARK  158  A    between atoms: _371  and  _372
REMARK  159  A    between atoms: _374  and  _376
REMARK  160  A    between atoms: _376  and  _377
REMARK  161  A    between atoms: _376  and  _379
REMARK  162  A    between atoms: _379  and  _380
REMARK  163  A    between atoms: _386  and  _388
REMARK  164  A    between atoms: _388  and  _389
REMARK  165  A    between atoms: _388  and  _391
REMARK  166  A    between atoms: _391  and  _392
REMARK  167  A    between atoms: _395  and  _397
REMARK  168  A    between atoms: _397  and  _398
REMARK  169  A    between atoms: _401  and  _403
REMARK  170  A    between atoms: _403  and  _404
REMARK  171  A    between atoms: _403  and  _406
REMARK  172  A    between atoms: _406  and  _407
REMARK  173  A    between atoms: _410  and  _412
REMARK  174  A    between atoms: _412  and  _413
REMARK  175  A    between atoms: _412  and  _415
REMARK  176  A    between atoms: _415  and  _416
REMARK  177  A    between atoms: _419  and  _421
REMARK  178  A    between atoms: _421  and  _422
REMARK  179  A    between atoms: _424  and  _426
REMARK  180  A    between atoms: _426  and  _427
REMARK  181  A    between atoms: _426  and  _429
REMARK  182  A    between atoms: _429  and  _430
REMARK  183  A    between atoms: _433  and  _435
REMARK  184  A    between atoms: _435  and  _436
REMARK  185  A    between atoms: _435  and  _438
REMARK  186  A    between atoms: _438  and  _439
REMARK  187  A    between atoms: _442  and  _444
REMARK  188  A    between atoms: _444  and  _445
REMARK  189  A    between atoms: _444  and  _447
REMARK  190  A    between atoms: _447  and  _448
REMARK  191  A    between atoms: _451  and  _453
REMARK  192  A    between atoms: _453  and  _454
REMARK  193  A    between atoms: _453  and  _456
REMARK  194  A    between atoms: _456  and  _457
REMARK  195  A    between atoms: _460  and  _462
REMARK  196  A    between atoms: _462  and  _463
REMARK  197  A    between atoms: _462  and  _465
REMARK  198  A    between atoms: _465  and  _466
REMARK  199  A    between atoms: _471  and  _472
REMARK  200  A    between atoms: _474  and  _476
REMARK  201  A    between atoms: _476  and  _477
REMARK  202  A    between atoms: _476  and  _479
REMARK  203  A    between atoms: _482  and  _484
REMARK  204  A    between atoms: _484  and  _485
REMARK  205  A    between atoms: _487  and  _489
REMARK  206  A    between atoms: _489  and  _490
REMARK  207  A    between atoms: _489  and  _492
REMARK  208  A    between atoms: _492  and  _493
REMARK  209  A    between atoms: _499  and  _501
REMARK  210  A    between atoms: _501  and  _502
REMARK  211  A    between atoms: _504  and  _506
REMARK  212  A    between atoms: _506  and  _507
REMARK  213  A    between atoms: _506  and  _509
REMARK  214  A    between atoms: _509  and  _510
REMARK  215  A    between atoms: _516  and  _518
REMARK  216  A    between atoms: _518  and  _519
REMARK  217  A    between atoms: _521  and  _523
REMARK  218  A    between atoms: _523  and  _524
REMARK  219  A    between atoms: _526  and  _528
REMARK  220  A    between atoms: _528  and  _529
REMARK  221  A    between atoms: _528  and  _531
REMARK  222  A    between atoms: _531  and  _532
REMARK  223  A    between atoms: _532  and  _533
REMARK  224  A    between atoms: _538  and  _540
REMARK  225  A    between atoms: _540  and  _541
REMARK  226  A    between atoms: _543  and  _545
REMARK  227  A    between atoms: _545  and  _546
REMARK  228  A    between atoms: _545  and  _548
REMARK  229  A    between atoms: _548  and  _549
REMARK  230  A    between atoms: _552  and  _554
REMARK  231  A    between atoms: _554  and  _555
REMARK  232  A    between atoms: _557  and  _559
REMARK  233  A    between atoms: _559  and  _560
REMARK  234  A    between atoms: _559  and  _562
REMARK  235  A    between atoms: _562  and  _563
REMARK  236  A    between atoms: _566  and  _568
REMARK  237  A    between atoms: _568  and  _569
REMARK  238  A    between atoms: _568  and  _571
REMARK  239  A    between atoms: _571  and  _572
REMARK  240  A    between atoms: _577  and  _579
REMARK  241  A    between atoms: _579  and  _580
REMARK  242  A    between atoms: _579  and  _582
REMARK  243  A    between atoms: _582  and  _583
REMARK  244  A    between atoms: _586  and  _588
REMARK  245  A    between atoms: _588  and  _589
REMARK  246  A    between atoms: _591  and  _593
REMARK  247  A    between atoms: _593  and  _594
REMARK  248  A    between atoms: _593  and  _596
REMARK  249  A    between atoms: _596  and  _597
REMARK  250  A    between atoms: _600  and  _602
REMARK  251  A    between atoms: _602  and  _603
REMARK  252  A    between atoms: _602  and  _605
REMARK                            x       y       z     vdW  Elec       q    Type
REMARK                         _______ _______ _______ _____ _____    ______ ____
ROOT
ATOM      1  CA  PHE A   1       2.139  15.599  18.161  0.00  0.00    +0.149 C 
ENDROOT
BRANCH   1   2
ATOM      2  C   PHE A   1       2.732  15.135  19.485  0.00  0.00    +0.239 C 
ATOM      3  N   GLY A   2       1.901  14.776  20.458  0.00  0.00    -0.297 N 
ATOM      4  H   GLY A   2       0.875  14.866  20.312  0.00  0.00    +0.150 HD
ATOM      5  O   PHE A   1       3.961  15.097  19.614  0.00  0.00    -0.274 OA
BRANCH   3   6
ATOM      6  CA  GLY A   2       2.398  14.262  21.718  0.00  0.00    +0.163 C 
BRANCH   6   7
ATOM      7  C   GLY A   2       1.311  14.017  22.744  0.00  0.00    +0.229 C 
ATOM      8  O   GLY A   2       0.172  14.434  22.547  0.00  0.00    -0.286 OA
ENDBRANCH   6   7
ENDBRANCH   3   6
ENDBRANCH   1   2
BRANCH   1   9
ATOM      9  N   PHE A   1       1.194  14.615  17.639  0.00  0.00    -0.238 NA
ATOM     10  H   PHE A   1       0.183  14.653  17.879  0.00  0.00    +0.142 HD
ENDBRANCH   1   9
BRANCH   1  11
ATOM     11  CB  PHE A   1       1.477  16.972  18.312  0.00  0.00    +0.053 C 
BRANCH  11  12
ATOM     12  CG  PHE A   1       2.529  18.063  18.450  0.00  0.00    -0.020 A 
ATOM     13  CD2 PHE A   1       2.637  18.799  19.615  0.00  0.00    -0.004 A 
ATOM     14  CE2 PHE A   1       3.602  19.783  19.738  0.00  0.00    -0.000 A 
ATOM     15  CZ  PHE A   1       4.461  20.027  18.688  0.00  0.00    -0.000 A 
ATOM     16  CE1 PHE A   1       4.357  19.305  17.513  0.00  0.00    -0.000 A 
ATOM     17  CD1 PHE A   1       3.394  18.322  17.402  0.00  0.00    -0.004 A 
ENDBRANCH  11  12
ENDBRANCH   1  11
TORSDOF 6
REMARK  Name = ../refined-set-2016/3uri/3uri_pocket.pdb
REMARK  252 active torsions:
REMARK  status: ('A' for Active; 'I' for Inactive)
REMARK    1  A    between atoms: _1  and  _3
REMARK    2  A    between atoms: _3  and  _4
REMARK    3  A    between atoms: _3  and  _6
REMARK    4  A    between atoms: _6  and  _7
REMARK    5  A    between atoms: _10  and  _12
REMARK    6  A    between atoms: _12  and  _13
REMARK    7  A    between atoms: _12  and  _15
REMARK    8  A    between atoms: _15  and  _16
REMARK    9  A    between atoms: _19  and  _21
REMARK   10  A    between atoms: _21  and  _22
REMARK   11  A    between atoms: _21  and  _24
REMARK   12  A    between atoms: _24  and  _25
REMARK   13  A    between atoms: _28  and  _30
REMARK   14  A    between atoms: _30  and  _31
REMARK   15  A    between atoms: _30  and  _33
REMARK   16  A    between atoms: _33  and  _34
REMARK   17  A    between atoms: _37  and  _39
REMARK   18  A    between atoms: _39  and  _40
REMARK   19  A    between atoms: _39  and  _42
REMARK   20  A    between atoms: _42  and  _43
REMARK   21  A    between atoms: _46  and  _48
REMARK   22  A    between atoms: _48  and  _49
REMARK   23  A    between atoms: _52  and  _54
REMARK   24  A    between atoms: _54  and  _55
REMARK   25  A    between atoms: _54  and  _57
REMARK   26  A    between atoms: _57  and  _58
REMARK   27  A    between atoms: _63  and  _64
REMARK   28  A    between atoms: _66  and  _68
REMARK   29  A    between atoms: _68  and  _69
REMARK   30  A    between atoms: _68  and  _71
REMARK   31  A    between atoms: _71  and  _72
REMARK   32  A    between atoms: _75  and  _77
REMARK   33  A    between atoms: _77  and  _78
REMARK   34  A    between atoms: _77  and  _80
REMARK   35  A    between atoms: _80  and  _81
REMARK   36  A    between atoms: _84  and  _86
REMARK   37  A    between atoms: _86  and  _87
REMARK   38  A    between atoms: _86  and  _89
REMARK   39  A    between atoms: _89  and  _90
REMARK   40  A    between atoms: _96  and  _98
REMARK   41  A    between atoms: _98  and  _99
REMARK   42  A    between atoms: _98  and  _101
REMARK   43  A    between atoms: _101  and  _102
REMARK   44  A    between atoms: _105  and  _107
REMARK   45  A    between atoms: _107  and  _108
REMARK   46  A    between atoms: _107  and  _110
REMARK   47  A    between atoms: _110  and  _111
REMARK   48  A    between atoms: _114  and  _116
REMARK   49  A    between atoms: _116  and  _117
REMARK   50  A    between atoms: _119  and  _121
REMARK   51  A    between atoms: _121  and  _122
REMARK   52  A    between atoms: _121  and  _124
REMARK   53  A    between atoms: _124  and  _125
REMARK   54  A    between atoms: _127  and  _129
REMARK   55  A    between atoms: _129  and  _130
REMARK   56  A    between atoms: _129  and  _132
REMARK   57  A    between atoms: _132  and  _133
REMARK   58  A    between atoms: _135  and  _137
REMARK   59  A    between atoms: _137  and  _138
REMARK   60  A    between atoms: _137  and  _140
REMARK   61  A    between atoms: _140  and  _141
REMARK   62  A    between atoms: _144  and  _146
REMARK   63  A    between atoms: _146  and  _147
REMARK   64  A    between atoms: _146  and  _149
REMARK   65  A    between atoms: _149  and  _150
REMARK   66  A    between atoms: _160  and  _162
REMARK   67  A    between atoms: _162  and  _163
REMARK   68  A    between atoms: _162  and  _165
REMARK   69  A    between atoms: _165  and  _166
REMARK   70  A    between atoms: _168  and  _170
REMARK   71  A    between atoms: _170  and  _171
REMARK   72  A    between atoms: _170  and  _173
REMARK   73  A    between atoms: _173  and  _174
REMARK   74  A    between atoms: _177  and  _179
REMARK   75  A    between atoms: _179  and  _180
REMARK   76  A    between atoms: _179  and  _182
REMARK   77  A    between atoms: _182  and  _183
REMARK   78  A    between atoms: _185  and  _187
REMARK   79  A    between atoms: _187  and  _188
REMARK   80  A    between atoms: _187  and  _190
REMARK   81  A    between atoms: _190  and  _191
REMARK   82  A    between atoms: _196  and  _197
REMARK   83  A    between atoms: _199  and  _201
REMARK   84  A    between atoms: _201  and  _202
REMARK   85  A    between atoms: _204  and  _206
REMARK   86  A    between atoms: _206  and  _207
REMARK   87  A    between atoms: _206  and  _209
REMARK   88  A    between atoms: _209  and  _210
REMARK   89  A    between atoms: _213  and  _215
REMARK   90  A    between atoms: _215  and  _216
REMARK   91  A    between atoms: _218  and  _220
REMARK   92  A    between atoms: _220  and  _221
REMARK   93  A    between atoms: _220  and  _223
REMARK   94  A    between atoms: _223  and  _224
REMARK   95  A    between atoms: _226  and  _228
REMARK   96  A    between atoms: _228  and  _229
REMARK   97  A    between atoms: _228  and  _231
REMARK   98  A    between atoms: _231  and  _232
REMARK   99  A    between atoms: _234  and  _236
REMARK  100  A    between atoms: _236  and  _237
REMARK  101  A    between atoms: _236  and  _239
REMARK  102  A    between atoms: _239  and  _240
REMARK  103  A    between atoms: _242  and  _244
REMARK  104  A    between atoms: _244  and  _245
REMARK  105  A    between atoms: _244  and  _247
REMARK  106  A    between atoms: _247  and  _248
REMARK  107  A    between atoms: _250  and  _252
REMARK  108  A    between atoms: _252  and  _253
REMARK  109  A    between atoms: _252  and  _255
REMARK  110  A    between atoms: _255  and  _256
REMARK  111  A    between atoms: _262  and  _264
REMARK  112  A    between atoms: _264  and  _265
REMARK  113  A    between atoms: _264  and  _267
REMARK  114  A    between atoms: _267  and  _268
REMARK  115  A    between atoms: _268  and  _269
REMARK  116  A    between atoms: _272  and  _274
REMARK  117  A    between atoms: _274  and  _275
REMARK  118  A    between atoms: _274  and  _277
REMARK  119  A    between atoms: _277  and  _278
REMARK  120  A    between atoms: _281  and  _283
REMARK  121  A    between atoms: _283  and  _284
REMARK  122  A    between atoms: _283  and  _286
REMARK  123  A    between atoms: _286  and  _287
REMARK  124  A    between atoms: _290  and  _292
REMARK  125  A    between atoms: _292  and  _293
REMARK  126  A    between atoms: _292  and  _295
REMARK  127  A    between atoms: _295  and  _296
REMARK  128  A    between atoms: _299  and  _301
REMARK  129  A    between atoms: _301  and  _302
REMARK  130  A    between atoms: _304  and  _306
REMARK  131  A    between atoms: _306  and  _307
REMARK  132  A    between atoms: _306  and  _309
REMARK  133  A    between atoms: _309  and  _310
REMARK  134  A    between atoms: _313  and  _315
REMARK  135  A    between atoms: _315  and  _316
REMARK  136  A    between atoms: _315  and  _318
REMARK  137  A    between atoms: _318  and  _319
REMARK  138  A    between atoms: _322  and  _324
REMARK  139  A    between atoms: _324  and  _325
REMARK  140  A    between atoms: _328  and  _330
REMARK  141  A    between atoms: _330  and  _331
REMARK  142  A    between atoms: _330  and  _333
REMARK  143  A    between atoms: _333  and  _334
REMARK  144  A    between atoms: _337  and  _339
REMARK  145  A    between atoms: _339  and  _340
REMARK  146  A    between atoms: _339  and  _342
REMARK  147  A    between atoms: _342  and  _343
REMARK  148  A    between atoms: _348  and  _350
REMARK  149  A    between atoms: _350  and  _351
REMARK  150  A    between atoms: _350  and  _353
REMARK  151  A    between atoms: _353  and  _354
REMARK  152  A    between atoms: _357  and  _359
REMARK  153  A    between atoms: _359  and  _360
REMARK  154  A    between atoms: _359  and  _362
REMARK  155  A    between atoms: _362  and  _363
REMARK  156  A    between atoms: _363  and  _364
REMARK  157  A    between atoms: _369  and  _371
REMARK  158  A    between atoms: _371  and  _372
REMARK  159  A    between atoms: _374  and  _376
REMARK  160  A    between atoms: _376  and  _377
REMARK  161  A    between atoms: _376  and  _379
REMARK  162  A    between atoms: _379  and  _380
REMARK  163  A    between atoms: _386  and  _388
REMARK  164  A    between atoms: _388  and  _389
REMARK  165  A    between atoms: _388  and  _391
REMARK  166  A    between atoms: _391  and  _392
REMARK  167  A    between atoms: _395  and  _397
REMARK  168  A    between atoms: _397  and  _398
REMARK  169  A    between atoms: _401  and  _403
REMARK  170  A    between atoms: _403  and  _404
REMARK  171  A    between atoms: _403  and  _406
REMARK  172  A    between atoms: _406  and  _407
REMARK  173  A    between atoms: _410  and  _412
REMARK  174  A    between atoms: _412  and  _413
REMARK  175  A    between atoms: _412  and  _415
REMARK  176  A    between atoms: _415  and  _416
REMARK  177  A    between atoms: _419  and  _421
REMARK  178  A    between atoms: _421  and  _422
REMARK  179  A    between atoms: _424  and  _426
REMARK  180  A    between atoms: _426  and  _427
REMARK  181  A    between atoms: _426  and  _429
REMARK  182  A    between atoms: _429  and  _430
REMARK  183  A    between atoms: _433  and  _435
REMARK  184  A    between atoms: _435  and  _436
REMARK  185  A    between atoms: _435  and  _438
REMARK  186  A    between atoms: _438  and  _439
REMARK  187  A    between atoms: _442  and  _444
REMARK  188  A    between atoms: _444  and  _445
REMARK  189  A    between atoms: _444  and  _447
REMARK  190  A    between atoms: _447  and  _448
REMARK  191  A    between atoms: _451  and  _453
REMARK  192  A    between atoms: _453  and  _454
REMARK  193  A    between atoms: _453  and  _456
REMARK  194  A    between atoms: _456  and  _457
REMARK  195  A    between atoms: _460  and  _462
REMARK  196  A    between atoms: _462  and  _463
REMARK  197  A    between atoms: _462  and  _465
REMARK  198  A    between atoms: _465  and  _466
REMARK  199  A    between atoms: _471  and  _472
REMARK  200  A    between atoms: _474  and  _476
REMARK  201  A    between atoms: _476  and  _477
REMARK  202  A    between atoms: _476  and  _479
REMARK  203  A    between atoms: _482  and  _484
REMARK  204  A    between atoms: _484  and  _485
REMARK  205  A    between atoms: _487  and  _489
REMARK  206  A    between atoms: _489  and  _490
REMARK  207  A    between atoms: _489  and  _492
REMARK  208  A    between atoms: _492  and  _493
REMARK  209  A    between atoms: _499  and  _501
REMARK  210  A    between atoms: _501  and  _502
REMARK  211  A    between atoms: _504  and  _506
REMARK  212  A    between atoms: _506  and  _507
REMARK  213  A    between atoms: _506  and  _509
REMARK  214  A    between atoms: _509  and  _510
REMARK  215  A    between atoms: _516  and  _518
REMARK  216  A    between atoms: _518  and  _519
REMARK  217  A    between atoms: _521  and  _523
REMARK  218  A    between atoms: _523  and  _524
REMARK  219  A    between atoms: _526  and  _528
REMARK  220  A    between atoms: _528  and  _529
REMARK  221  A    between atoms: _528  and  _531
REMARK  222  A    between atoms: _531  and  _532
REMARK  223  A    between atoms: _532  and  _533
REMARK  224  A    between atoms: _538  and  _540
REMARK  225  A    between atoms: _540  and  _541
REMARK  226  A    between atoms: _543  and  _545
REMARK  227  A    between atoms: _545  and  _546
REMARK  228  A    between atoms: _545  and  _548
REMARK  229  A    between atoms: _548  and  _549
REMARK  230  A    between atoms: _552  and  _554
REMARK  231  A    between atoms: _554  and  _555
REMARK  232  A    between atoms: _557  and  _559
REMARK  233  A    between atoms: _559  and  _560
REMARK  234  A    between atoms: _559  and  _562
REMARK  235  A    between atoms: _562  and  _563
REMARK  236  A    between atoms: _566  and  _568
REMARK  237  A    between atoms: _568  and  _569
REMARK  238  A    between atoms: _568  and  _571
REMARK  239  A    between atoms: _571  and  _572
REMARK  240  A    between atoms: _577  and  _579
REMARK  241  A    between atoms: _579  and  _580
REMARK  242  A    between atoms: _579  and  _582
REMARK  243  A    between atoms: _582  and  _583
REMARK  244  A    between atoms: _586  and  _588
REMARK  245  A    between atoms: _588  and  _589
REMARK  246  A    between atoms: _591  and  _593
REMARK  247  A    between atoms: _593  and  _594
REMARK  248  A    between atoms: _593  and  _596
REMARK  249  A    between atoms: _596  and  _597
REMARK  250  A    between atoms: _600  and  _602
REMARK  251  A    between atoms: _602  and  _603
REMARK  252  A    between atoms: _602  and  _605
REMARK                            x       y       z     vdW  Elec       q    Type
REMARK                         _______ _______ _______ _____ _____    ______ ____
ROOT
ATOM      1  C   PHE A   1      -2.478  16.233  19.319  0.00  0.00    +0.239 C 
ATOM      2  O   PHE A   1      -1.360  15.909  18.914  0.00  0.00    -0.274 OA
ATOM      3  N   GLY A   2      -3.493  16.532  18.518  0.00  0.00    -0.296 N 
ATOM      4  H   GLY A   2      -4.368  16.861  18.974  0.00  0.00    +0.150 HD
ENDROOT
BRANCH   1   5
ATOM      5  CA  PHE A   1      -2.776  16.314  20.822  0.00  0.00    +0.149 C 
BRANCH   5   6
ATOM      6  N   PHE A   1      -2.306  15.118  21.508  0.00  0.00    -0.238 NA
ATOM      7  H   PHE A   1      -1.292  15.039  21.726  0.00  0.00    +0.142 HD
ENDBRANCH   5   6
BRANCH   5   8
ATOM      8  CB  PHE A   1      -2.155  17.575  21.427  0.00  0.00    +0.053 C 
BRANCH   8   9
ATOM      9  CG  PHE A   1      -2.769  18.882  20.943  0.00  0.00    -0.020 A 
ATOM     10  CD2 PHE A   1      -4.090  19.196  21.213  0.00  0.00    -0.004 A 
ATOM     11  CE2 PHE A   1      -4.662  20.376  20.774  0.00  0.00    -0.000 A 
ATOM     12  CZ  PHE A   1      -3.903  21.271  20.045  0.00  0.00    -0.000 A 
ATOM     13  CE1 PHE A   1      -2.577  20.972  19.769  0.00  0.00    -0.000 A 
ATOM     14  CD1 PHE A   1      -2.018  19.792  20.218  0.00  0.00    -0.004 A 
ENDBRANCH   8   9
ENDBRANCH   5   8
ENDBRANCH   1   5
BRANCH   3  15
ATOM     15  CA  GLY A   2      -3.503  16.446  17.074  0.00  0.00    +0.176 C 
BRANCH  15  16
ATOM     16  C   GLY A   2      -2.636  17.464  16.373  0.00  0.00    +0.243 C 
ATOM     17  O   GLY A   2      -2.513  18.608  16.814  0.00  0.00    -0.273 OA
ATOM     18  N   GLY A   3      -2.001  17.089  15.264  0.00  0.00    -0.296 N 
ATOM     19  H   GLY A   3      -2.161  16.137  14.877  0.00  0.00    +0.150 HD
BRANCH  18  20
ATOM     20  CA  GLY A   3      -1.088  17.994  14.588  0.00  0.00    +0.163 C 
BRANCH  20  21
ATOM     21  C   GLY A   3      -1.770  18.876  13.564  0.00  0.00    +0.229 C 
ATOM     22  O   GLY A   3      -1.150  19.765  12.980  0.00  0.00    -0.286 OA
ENDBRANCH  20  21
ENDBRANCH  18  20
ENDBRANCH  15  16
ENDBRANCH   3  15
TORSDOF 8
REMARK  Name = ../refined-set-2016/3uri/3uri_pocket.pdb
REMARK  252 active torsions:
REMARK  status: ('A' for Active; 'I' for Inactive)
REMARK    1  A    between atoms: _1  and  _3
REMARK    2  A    between atoms: _3  and  _4
REMARK    3  A    between atoms: _3  and  _6
REMARK    4  A    between atoms: _6  and  _7
REMARK    5  A    between atoms: _10  and  _12
REMARK    6  A    between atoms: _12  and  _13
REMARK    7  A    between atoms: _12  and  _15
REMARK    8  A    between atoms: _15  and  _16
REMARK    9  A    between atoms: _19  and  _21
REMARK   10  A    between atoms: _21  and  _22
REMARK   11  A    between atoms: _21  and  _24
REMARK   12  A    between atoms: _24  and  _25
REMARK   13  A    between atoms: _28  and  _30
REMARK   14  A    between atoms: _30  and  _31
REMARK   15  A    between atoms: _30  and  _33
REMARK   16  A    between atoms: _33  and  _34
REMARK   17  A    between atoms: _37  and  _39
REMARK   18  A    between atoms: _39  and  _40
REMARK   19  A    between atoms: _39  and  _42
REMARK   20  A    between atoms: _42  and  _43
REMARK   21  A    between atoms: _46  and  _48
REMARK   22  A    between atoms: _48  and  _49
REMARK   23  A    between atoms: _52  and  _54
REMARK   24  A    between atoms: _54  and  _55
REMARK   25  A    between atoms: _54  and  _57
REMARK   26  A    between atoms: _57  and  _58
REMARK   27  A    between atoms: _63  and  _64
REMARK   28  A    between atoms: _66  and  _68
REMARK   29  A    between atoms: _68  and  _69
REMARK   30  A    between atoms: _68  and  _71
REMARK   31  A    between atoms: _71  and  _72
REMARK   32  A    between atoms: _75  and  _77
REMARK   33  A    between atoms: _77  and  _78
REMARK   34  A    between atoms: _77  and  _80
REMARK   35  A    between atoms: _80  and  _81
REMARK   36  A    between atoms: _84  and  _86
REMARK   37  A    between atoms: _86  and  _87
REMARK   38  A    between atoms: _86  and  _89
REMARK   39  A    between atoms: _89  and  _90
REMARK   40  A    between atoms: _96  and  _98
REMARK   41  A    between atoms: _98  and  _99
REMARK   42  A    between atoms: _98  and  _101
REMARK   43  A    between atoms: _101  and  _102
REMARK   44  A    between atoms: _105  and  _107
REMARK   45  A    between atoms: _107  and  _108
REMARK   46  A    between atoms: _107  and  _110
REMARK   47  A    between atoms: _110  and  _111
REMARK   48  A    between atoms: _114  and  _116
REMARK   49  A    between atoms: _116  and  _117
REMARK   50  A    between atoms: _119  and  _121
REMARK   51  A    between atoms: _121  and  _122
REMARK   52  A    between atoms: _121  and  _124
REMARK   53  A    between atoms: _124  and  _125
REMARK   54  A    between atoms: _127  and  _129
REMARK   55  A    between atoms: _129  and  _130
REMARK   56  A    between atoms: _129  and  _132
REMARK   57  A    between atoms: _132  and  _133
REMARK   58  A    between atoms: _135  and  _137
REMARK   59  A    between atoms: _137  and  _138
REMARK   60  A    between atoms: _137  and  _140
REMARK   61  A    between atoms: _140  and  _141
REMARK   62  A    between atoms: _144  and  _146
REMARK   63  A    between atoms: _146  and  _147
REMARK   64  A    between atoms: _146  and  _149
REMARK   65  A    between atoms: _149  and  _150
REMARK   66  A    between atoms: _160  and  _162
REMARK   67  A    between atoms: _162  and  _163
REMARK   68  A    between atoms: _162  and  _165
REMARK   69  A    between atoms: _165  and  _166
REMARK   70  A    between atoms: _168  and  _170
REMARK   71  A    between atoms: _170  and  _171
REMARK   72  A    between atoms: _170  and  _173
REMARK   73  A    between atoms: _173  and  _174
REMARK   74  A    between atoms: _177  and  _179
REMARK   75  A    between atoms: _179  and  _180
REMARK   76  A    between atoms: _179  and  _182
REMARK   77  A    between atoms: _182  and  _183
REMARK   78  A    between atoms: _185  and  _187
REMARK   79  A    between atoms: _187  and  _188
REMARK   80  A    between atoms: _187  and  _190
REMARK   81  A    between atoms: _190  and  _191
REMARK   82  A    between atoms: _196  and  _197
REMARK   83  A    between atoms: _199  and  _201
REMARK   84  A    between atoms: _201  and  _202
REMARK   85  A    between atoms: _204  and  _206
REMARK   86  A    between atoms: _206  and  _207
REMARK   87  A    between atoms: _206  and  _209
REMARK   88  A    between atoms: _209  and  _210
REMARK   89  A    between atoms: _213  and  _215
REMARK   90  A    between atoms: _215  and  _216
REMARK   91  A    between atoms: _218  and  _220
REMARK   92  A    between atoms: _220  and  _221
REMARK   93  A    between atoms: _220  and  _223
REMARK   94  A    between atoms: _223  and  _224
REMARK   95  A    between atoms: _226  and  _228
REMARK   96  A    between atoms: _228  and  _229
REMARK   97  A    between atoms: _228  and  _231
REMARK   98  A    between atoms: _231  and  _232
REMARK   99  A    between atoms: _234  and  _236
REMARK  100  A    between atoms: _236  and  _237
REMARK  101  A    between atoms: _236  and  _239
REMARK  102  A    between atoms: _239  and  _240
REMARK  103  A    between atoms: _242  and  _244
REMARK  104  A    between atoms: _244  and  _245
REMARK  105  A    between atoms: _244  and  _247
REMARK  106  A    between atoms: _247  and  _248
REMARK  107  A    between atoms: _250  and  _252
REMARK  108  A    between atoms: _252  and  _253
REMARK  109  A    between atoms: _252  and  _255
REMARK  110  A    between atoms: _255  and  _256
REMARK  111  A    between atoms: _262  and  _264
REMARK  112  A    between atoms: _264  and  _265
REMARK  113  A    between atoms: _264  and  _267
REMARK  114  A    between atoms: _267  and  _268
REMARK  115  A    between atoms: _268  and  _269
REMARK  116  A    between atoms: _272  and  _274
REMARK  117  A    between atoms: _274  and  _275
REMARK  118  A    between atoms: _274  and  _277
REMARK  119  A    between atoms: _277  and  _278
REMARK  120  A    between atoms: _281  and  _283
REMARK  121  A    between atoms: _283  and  _284
REMARK  122  A    between atoms: _283  and  _286
REMARK  123  A    between atoms: _286  and  _287
REMARK  124  A    between atoms: _290  and  _292
REMARK  125  A    between atoms: _292  and  _293
REMARK  126  A    between atoms: _292  and  _295
REMARK  127  A    between atoms: _295  and  _296
REMARK  128  A    between atoms: _299  and  _301
REMARK  129  A    between atoms: _301  and  _302
REMARK  130  A    between atoms: _304  and  _306
REMARK  131  A    between atoms: _306  and  _307
REMARK  132  A    between atoms: _306  and  _309
REMARK  133  A    between atoms: _309  and  _310
REMARK  134  A    between atoms: _313  and  _315
REMARK  135  A    between atoms: _315  and  _316
REMARK  136  A    between atoms: _315  and  _318
REMARK  137  A    between atoms: _318  and  _319
REMARK  138  A    between atoms: _322  and  _324
REMARK  139  A    between atoms: _324  and  _325
REMARK  140  A    between atoms: _328  and  _330
REMARK  141  A    between atoms: _330  and  _331
REMARK  142  A    between atoms: _330  and  _333
REMARK  143  A    between atoms: _333  and  _334
REMARK  144  A    between atoms: _337  and  _339
REMARK  145  A    between atoms: _339  and  _340
REMARK  146  A    between atoms: _339  and  _342
REMARK  147  A    between atoms: _342  and  _343
REMARK  148  A    between atoms: _348  and  _350
REMARK  149  A    between atoms: _350  and  _351
REMARK  150  A    between atoms: _350  and  _353
REMARK  151  A    between atoms: _353  and  _354
REMARK  152  A    between atoms: _357  and  _359
REMARK  153  A    between atoms: _359  and  _360
REMARK  154  A    between atoms: _359  and  _362
REMARK  155  A    between atoms: _362  and  _363
REMARK  156  A    between atoms: _363  and  _364
REMARK  157  A    between atoms: _369  and  _371
REMARK  158  A    between atoms: _371  and  _372
REMARK  159  A    between atoms: _374  and  _376
REMARK  160  A    between atoms: _376  and  _377
REMARK  161  A    between atoms: _376  and  _379
REMARK  162  A    between atoms: _379  and  _380
REMARK  163  A    between atoms: _386  and  _388
REMARK  164  A    between atoms: _388  and  _389
REMARK  165  A    between atoms: _388  and  _391
REMARK  166  A    between atoms: _391  and  _392
REMARK  167  A    between atoms: _395  and  _397
REMARK  168  A    between atoms: _397  and  _398
REMARK  169  A    between atoms: _401  and  _403
REMARK  170  A    between atoms: _403  and  _404
REMARK  171  A    between atoms: _403  and  _406
REMARK  172  A    between atoms: _406  and  _407
REMARK  173  A    between atoms: _410  and  _412
REMARK  174  A    between atoms: _412  and  _413
REMARK  175  A    between atoms: _412  and  _415
REMARK  176  A    between atoms: _415  and  _416
REMARK  177  A    between atoms: _419  and  _421
REMARK  178  A    between atoms: _421  and  _422
REMARK  179  A    between atoms: _424  and  _426
REMARK  180  A    between atoms: _426  and  _427
REMARK  181  A    between atoms: _426  and  _429
REMARK  182  A    between atoms: _429  and  _430
REMARK  183  A    between atoms: _433  and  _435
REMARK  184  A    between atoms: _435  and  _436
REMARK  185  A    between atoms: _435  and  _438
REMARK  186  A    between atoms: _438  and  _439
REMARK  187  A    between atoms: _442  and  _444
REMARK  188  A    between atoms: _444  and  _445
REMARK  189  A    between atoms: _444  and  _447
REMARK  190  A    between atoms: _447  and  _448
REMARK  191  A    between atoms: _451  and  _453
REMARK  192  A    between atoms: _453  and  _454
REMARK  193  A    between atoms: _453  and  _456
REMARK  194  A    between atoms: _456  and  _457
REMARK  195  A    between atoms: _460  and  _462
REMARK  196  A    between atoms: _462  and  _463
REMARK  197  A    between atoms: _462  and  _465
REMARK  198  A    between atoms: _465  and  _466
REMARK  199  A    between atoms: _471  and  _472
REMARK  200  A    between atoms: _474  and  _476
REMARK  201  A    between atoms: _476  and  _477
REMARK  202  A    between atoms: _476  and  _479
REMARK  203  A    between atoms: _482  and  _484
REMARK  204  A    between atoms: _484  and  _485
REMARK  205  A    between atoms: _487  and  _489
REMARK  206  A    between atoms: _489  and  _490
REMARK  207  A    between atoms: _489  and  _492
REMARK  208  A    between atoms: _492  and  _493
REMARK  209  A    between atoms: _499  and  _501
REMARK  210  A    between atoms: _501  and  _502
REMARK  211  A    between atoms: _504  and  _506
REMARK  212  A    between atoms: _506  and  _507
REMARK  213  A    between atoms: _506  and  _509
REMARK  214  A    between atoms: _509  and  _510
REMARK  215  A    between atoms: _516  and  _518
REMARK  216  A    between atoms: _518  and  _519
REMARK  217  A    between atoms: _521  and  _523
REMARK  218  A    between atoms: _523  and  _524
REMARK  219  A    between atoms: _526  and  _528
REMARK  220  A    between atoms: _528  and  _529
REMARK  221  A    between atoms: _528  and  _531
REMARK  222  A    between atoms: _531  and  _532
REMARK  223  A    between atoms: _532  and  _533
REMARK  224  A    between atoms: _538  and  _540
REMARK  225  A    between atoms: _540  and  _541
REMARK  226  A    between atoms: _543  and  _545
REMARK  227  A    between atoms: _545  and  _546
REMARK  228  A    between atoms: _545  and  _548
REMARK  229  A    between atoms: _548  and  _549
REMARK  230  A    between atoms: _552  and  _554
REMARK  231  A    between atoms: _554  and  _555
REMARK  232  A    between atoms: _557  and  _559
REMARK  233  A    between atoms: _559  and  _560
REMARK  234  A    between atoms: _559  and  _562
REMARK  235  A    between atoms: _562  and  _563
REMARK  236  A    between atoms: _566  and  _568
REMARK  237  A    between atoms: _568  and  _569
REMARK  238  A    between atoms: _568  and  _571
REMARK  239  A    between atoms: _571  and  _572
REMARK  240  A    between atoms: _577  and  _579
REMARK  241  A    between atoms: _579  and  _580
REMARK  242  A    between atoms: _579  and  _582
REMARK  243  A    between atoms: _582  and  _583
REMARK  244  A    between atoms: _586  and  _588
REMARK  245  A    between atoms: _588  and  _589
REMARK  246  A    between atoms: _591  and  _593
REMARK  247  A    between atoms: _593  and  _594
REMARK  248  A    between atoms: _593  and  _596
REMARK  249  A    between atoms: _596  and  _597
REMARK  250  A    between atoms: _600  and  _602
REMARK  251  A    between atoms: _602  and  _603
REMARK  252  A    between atoms: _602  and  _605
REMARK                            x       y       z     vdW  Elec       q    Type
REMARK                         _______ _______ _______ _____ _____    ______ ____
ROOT
ATOM      1  CB  GLN A   1      -5.660  22.591  15.198  0.00  0.00    +0.035 C 
ENDROOT
BRANCH   1   2
ATOM      2  CA  GLN A   1      -6.311  21.926  13.989  0.00  0.00    +0.134 C 
BRANCH   2   3
ATOM      3  N   GLN A   1      -5.336  21.258  13.128  0.00  0.00    -0.239 NA
ATOM      4  H   GLN A   1      -4.867  21.794  12.370  0.00  0.00    +0.142 HD
ENDBRANCH   2   3
BRANCH   2   5
ATOM      5  C   GLN A   1      -7.076  22.970  13.179  0.00  0.00    +0.224 C 
ATOM      6  O   GLN A   1      -6.634  23.370  12.103  0.00  0.00    -0.287 OA
ENDBRANCH   2   5
ENDBRANCH   1   2
BRANCH   1   7
ATOM      7  CG  GLN A   1      -4.846  21.699  16.108  0.00  0.00    +0.087 C 
BRANCH   7   8
ATOM      8  CD  GLN A   1      -5.646  20.716  16.933  0.00  0.00    +0.219 C 
ATOM      9  NE2 GLN A   1      -5.013  19.610  17.315  0.00  0.00    -0.329 N 
ATOM     10 HE21 GLN A   1      -5.509  18.899  17.890  0.00  0.00    +0.145 HD
ATOM     11 HE22 GLN A   1      -4.022  19.456  17.039  0.00  0.00    +0.145 HD
ATOM     12  OE1 GLN A   1      -6.818  20.917  17.249  0.00  0.00    -0.275 OA
ENDBRANCH   7   8
ENDBRANCH   1   7
TORSDOF 5
REMARK  Name = ../refined-set-2016/3uri/3uri_pocket.pdb
REMARK  252 active torsions:
REMARK  status: ('A' for Active; 'I' for Inactive)
REMARK    1  A    between atoms: _1  and  _3
REMARK    2  A    between atoms: _3  and  _4
REMARK    3  A    between atoms: _3  and  _6
REMARK    4  A    between atoms: _6  and  _7
REMARK    5  A    between atoms: _10  and  _12
REMARK    6  A    between atoms: _12  and  _13
REMARK    7  A    between atoms: _12  and  _15
REMARK    8  A    between atoms: _15  and  _16
REMARK    9  A    between atoms: _19  and  _21
REMARK   10  A    between atoms: _21  and  _22
REMARK   11  A    between atoms: _21  and  _24
REMARK   12  A    between atoms: _24  and  _25
REMARK   13  A    between atoms: _28  and  _30
REMARK   14  A    between atoms: _30  and  _31
REMARK   15  A    between atoms: _30  and  _33
REMARK   16  A    between atoms: _33  and  _34
REMARK   17  A    between atoms: _37  and  _39
REMARK   18  A    between atoms: _39  and  _40
REMARK   19  A    between atoms: _39  and  _42
REMARK   20  A    between atoms: _42  and  _43
REMARK   21  A    between atoms: _46  and  _48
REMARK   22  A    between atoms: _48  and  _49
REMARK   23  A    between atoms: _52  and  _54
REMARK   24  A    between atoms: _54  and  _55
REMARK   25  A    between atoms: _54  and  _57
REMARK   26  A    between atoms: _57  and  _58
REMARK   27  A    between atoms: _63  and  _64
REMARK   28  A    between atoms: _66  and  _68
REMARK   29  A    between atoms: _68  and  _69
REMARK   30  A    between atoms: _68  and  _71
REMARK   31  A    between atoms: _71  and  _72
REMARK   32  A    between atoms: _75  and  _77
REMARK   33  A    between atoms: _77  and  _78
REMARK   34  A    between atoms: _77  and  _80
REMARK   35  A    between atoms: _80  and  _81
REMARK   36  A    between atoms: _84  and  _86
REMARK   37  A    between atoms: _86  and  _87
REMARK   38  A    between atoms: _86  and  _89
REMARK   39  A    between atoms: _89  and  _90
REMARK   40  A    between atoms: _96  and  _98
REMARK   41  A    between atoms: _98  and  _99
REMARK   42  A    between atoms: _98  and  _101
REMARK   43  A    between atoms: _101  and  _102
REMARK   44  A    between atoms: _105  and  _107
REMARK   45  A    between atoms: _107  and  _108
REMARK   46  A    between atoms: _107  and  _110
REMARK   47  A    between atoms: _110  and  _111
REMARK   48  A    between atoms: _114  and  _116
REMARK   49  A    between atoms: _116  and  _117
REMARK   50  A    between atoms: _119  and  _121
REMARK   51  A    between atoms: _121  and  _122
REMARK   52  A    between atoms: _121  and  _124
REMARK   53  A    between atoms: _124  and  _125
REMARK   54  A    between atoms: _127  and  _129
REMARK   55  A    between atoms: _129  and  _130
REMARK   56  A    between atoms: _129  and  _132
REMARK   57  A    between atoms: _132  and  _133
REMARK   58  A    between atoms: _135  and  _137
REMARK   59  A    between atoms: _137  and  _138
REMARK   60  A    between atoms: _137  and  _140
REMARK   61  A    between atoms: _140  and  _141
REMARK   62  A    between atoms: _144  and  _146
REMARK   63  A    between atoms: _146  and  _147
REMARK   64  A    between atoms: _146  and  _149
REMARK   65  A    between atoms: _149  and  _150
REMARK   66  A    between atoms: _160  and  _162
REMARK   67  A    between atoms: _162  and  _163
REMARK   68  A    between atoms: _162  and  _165
REMARK   69  A    between atoms: _165  and  _166
REMARK   70  A    between atoms: _168  and  _170
REMARK   71  A    between atoms: _170  and  _171
REMARK   72  A    between atoms: _170  and  _173
REMARK   73  A    between atoms: _173  and  _174
REMARK   74  A    between atoms: _177  and  _179
REMARK   75  A    between atoms: _179  and  _180
REMARK   76  A    between atoms: _179  and  _182
REMARK   77  A    between atoms: _182  and  _183
REMARK   78  A    between atoms: _185  and  _187
REMARK   79  A    between atoms: _187  and  _188
REMARK   80  A    between atoms: _187  and  _190
REMARK   81  A    between atoms: _190  and  _191
REMARK   82  A    between atoms: _196  and  _197
REMARK   83  A    between atoms: _199  and  _201
REMARK   84  A    between atoms: _201  and  _202
REMARK   85  A    between atoms: _204  and  _206
REMARK   86  A    between atoms: _206  and  _207
REMARK   87  A    between atoms: _206  and  _209
REMARK   88  A    between atoms: _209  and  _210
REMARK   89  A    between atoms: _213  and  _215
REMARK   90  A    between atoms: _215  and  _216
REMARK   91  A    between atoms: _218  and  _220
REMARK   92  A    between atoms: _220  and  _221
REMARK   93  A    between atoms: _220  and  _223
REMARK   94  A    between atoms: _223  and  _224
REMARK   95  A    between atoms: _226  and  _228
REMARK   96  A    between atoms: _228  and  _229
REMARK   97  A    between atoms: _228  and  _231
REMARK   98  A    between atoms: _231  and  _232
REMARK   99  A    between atoms: _234  and  _236
REMARK  100  A    between atoms: _236  and  _237
REMARK  101  A    between atoms: _236  and  _239
REMARK  102  A    between atoms: _239  and  _240
REMARK  103  A    between atoms: _242  and  _244
REMARK  104  A    between atoms: _244  and  _245
REMARK  105  A    between atoms: _244  and  _247
REMARK  106  A    between atoms: _247  and  _248
REMARK  107  A    between atoms: _250  and  _252
REMARK  108  A    between atoms: _252  and  _253
REMARK  109  A    between atoms: _252  and  _255
REMARK  110  A    between atoms: _255  and  _256
REMARK  111  A    between atoms: _262  and  _264
REMARK  112  A    between atoms: _264  and  _265
REMARK  113  A    between atoms: _264  and  _267
REMARK  114  A    between atoms: _267  and  _268
REMARK  115  A    between atoms: _268  and  _269
REMARK  116  A    between atoms: _272  and  _274
REMARK  117  A    between atoms: _274  and  _275
REMARK  118  A    between atoms: _274  and  _277
REMARK  119  A    between atoms: _277  and  _278
REMARK  120  A    between atoms: _281  and  _283
REMARK  121  A    between atoms: _283  and  _284
REMARK  122  A    between atoms: _283  and  _286
REMARK  123  A    between atoms: _286  and  _287
REMARK  124  A    between atoms: _290  and  _292
REMARK  125  A    between atoms: _292  and  _293
REMARK  126  A    between atoms: _292  and  _295
REMARK  127  A    between atoms: _295  and  _296
REMARK  128  A    between atoms: _299  and  _301
REMARK  129  A    between atoms: _301  and  _302
REMARK  130  A    between atoms: _304  and  _306
REMARK  131  A    between atoms: _306  and  _307
REMARK  132  A    between atoms: _306  and  _309
REMARK  133  A    between atoms: _309  and  _310
REMARK  134  A    between atoms: _313  and  _315
REMARK  135  A    between atoms: _315  and  _316
REMARK  136  A    between atoms: _315  and  _318
REMARK  137  A    between atoms: _318  and  _319
REMARK  138  A    between atoms: _322  and  _324
REMARK  139  A    between atoms: _324  and  _325
REMARK  140  A    between atoms: _328  and  _330
REMARK  141  A    between atoms: _330  and  _331
REMARK  142  A    between atoms: _330  and  _333
REMARK  143  A    between atoms: _333  and  _334
REMARK  144  A    between atoms: _337  and  _339
REMARK  145  A    between atoms: _339  and  _340
REMARK  146  A    between atoms: _339  and  _342
REMARK  147  A    between atoms: _342  and  _343
REMARK  148  A    between atoms: _348  and  _350
REMARK  149  A    between atoms: _350  and  _351
REMARK  150  A    between atoms: _350  and  _353
REMARK  151  A    between atoms: _353  and  _354
REMARK  152  A    between atoms: _357  and  _359
REMARK  153  A    between atoms: _359  and  _360
REMARK  154  A    between atoms: _359  and  _362
REMARK  155  A    between atoms: _362  and  _363
REMARK  156  A    between atoms: _363  and  _364
REMARK  157  A    between atoms: _369  and  _371
REMARK  158  A    between atoms: _371  and  _372
REMARK  159  A    between atoms: _374  and  _376
REMARK  160  A    between atoms: _376  and  _377
REMARK  161  A    between atoms: _376  and  _379
REMARK  162  A    between atoms: _379  and  _380
REMARK  163  A    between atoms: _386  and  _388
REMARK  164  A    between atoms: _388  and  _389
REMARK  165  A    between atoms: _388  and  _391
REMARK  166  A    between atoms: _391  and  _392
REMARK  167  A    between atoms: _395  and  _397
REMARK  168  A    between atoms: _397  and  _398
REMARK  169  A    between atoms: _401  and  _403
REMARK  170  A    between atoms: _403  and  _404
REMARK  171  A    between atoms: _403  and  _406
REMARK  172  A    between atoms: _406  and  _407
REMARK  173  A    between atoms: _410  and  _412
REMARK  174  A    between atoms: _412  and  _413
REMARK  175  A    between atoms: _412  and  _415
REMARK  176  A    between atoms: _415  and  _416
REMARK  177  A    between atoms: _419  and  _421
REMARK  178  A    between atoms: _421  and  _422
REMARK  179  A    between atoms: _424  and  _426
REMARK  180  A    between atoms: _426  and  _427
REMARK  181  A    between atoms: _426  and  _429
REMARK  182  A    between atoms: _429  and  _430
REMARK  183  A    between atoms: _433  and  _435
REMARK  184  A    between atoms: _435  and  _436
REMARK  185  A    between atoms: _435  and  _438
REMARK  186  A    between atoms: _438  and  _439
REMARK  187  A    between atoms: _442  and  _444
REMARK  188  A    between atoms: _444  and  _445
REMARK  189  A    between atoms: _444  and  _447
REMARK  190  A    between atoms: _447  and  _448
REMARK  191  A    between atoms: _451  and  _453
REMARK  192  A    between atoms: _453  and  _454
REMARK  193  A    between atoms: _453  and  _456
REMARK  194  A    between atoms: _456  and  _457
REMARK  195  A    between atoms: _460  and  _462
REMARK  196  A    between atoms: _462  and  _463
REMARK  197  A    between atoms: _462  and  _465
REMARK  198  A    between atoms: _465  and  _466
REMARK  199  A    between atoms: _471  and  _472
REMARK  200  A    between atoms: _474  and  _476
REMARK  201  A    between atoms: _476  and  _477
REMARK  202  A    between atoms: _476  and  _479
REMARK  203  A    between atoms: _482  and  _484
REMARK  204  A    between atoms: _484  and  _485
REMARK  205  A    between atoms: _487  and  _489
REMARK  206  A    between atoms: _489  and  _490
REMARK  207  A    between atoms: _489  and  _492
REMARK  208  A    between atoms: _492  and  _493
REMARK  209  A    between atoms: _499  and  _501
REMARK  210  A    between atoms: _501  and  _502
REMARK  211  A    between atoms: _504  and  _506
REMARK  212  A    between atoms: _506  and  _507
REMARK  213  A    between atoms: _506  and  _509
REMARK  214  A    between atoms: _509  and  _510
REMARK  215  A    between atoms: _516  and  _518
REMARK  216  A    between atoms: _518  and  _519
REMARK  217  A    between atoms: _521  and  _523
REMARK  218  A    between atoms: _523  and  _524
REMARK  219  A    between atoms: _526  and  _528
REMARK  220  A    between atoms: _528  and  _529
REMARK  221  A    between atoms: _528  and  _531
REMARK  222  A    between atoms: _531  and  _532
REMARK  223  A    between atoms: _532  and  _533
REMARK  224  A    between atoms: _538  and  _540
REMARK  225  A    between atoms: _540  and  _541
REMARK  226  A    between atoms: _543  and  _545
REMARK  227  A    between atoms: _545  and  _546
REMARK  228  A    between atoms: _545  and  _548
REMARK  229  A    between atoms: _548  and  _549
REMARK  230  A    between atoms: _552  and  _554
REMARK  231  A    between atoms: _554  and  _555
REMARK  232  A    between atoms: _557  and  _559
REMARK  233  A    between atoms: _559  and  _560
REMARK  234  A    between atoms: _559  and  _562
REMARK  235  A    between atoms: _562  and  _563
REMARK  236  A    between atoms: _566  and  _568
REMARK  237  A    between atoms: _568  and  _569
REMARK  238  A    between atoms: _568  and  _571
REMARK  239  A    between atoms: _571  and  _572
REMARK  240  A    between atoms: _577  and  _579
REMARK  241  A    between atoms: _579  and  _580
REMARK  242  A    between atoms: _579  and  _582
REMARK  243  A    between atoms: _582  and  _583
REMARK  244  A    between atoms: _586  and  _588
REMARK  245  A    between atoms: _588  and  _589
REMARK  246  A    between atoms: _591  and  _593
REMARK  247  A    between atoms: _593  and  _594
REMARK  248  A    between atoms: _593  and  _596
REMARK  249  A    between atoms: _596  and  _597
REMARK  250  A    between atoms: _600  and  _602
REMARK  251  A    between atoms: _602  and  _603
REMARK  252  A    between atoms: _602  and  _605
REMARK                            x       y       z     vdW  Elec       q    Type
REMARK                         _______ _______ _______ _____ _____    ______ ____
ROOT
ATOM      1  CA  ILE A   4      -5.831  32.382   8.004  0.00  0.00    +0.149 C 
ENDROOT
BRANCH   1   3
ATOM      2  C   GLY A   3      -7.465  33.711   9.204  0.00  0.00    +0.243 C 
ATOM      3  N   ILE A   4      -6.604  32.694   9.195  0.00  0.00    -0.297 N 
ATOM      4  H   ILE A   4      -6.483  32.116  10.051  0.00  0.00    +0.150 HD
ATOM      5  O   GLY A   3      -7.602  34.464   8.239  0.00  0.00    -0.273 OA
BRANCH   2   6
ATOM      6  CA  GLY A   3      -8.276  33.927  10.464  0.00  0.00    +0.176 C 
BRANCH   6   9
ATOM      7  C   ILE A   2      -7.145  33.506  12.571  0.00  0.00    +0.241 C 
ATOM      8  O   ILE A   2      -6.771  34.678  12.624  0.00  0.00    -0.273 OA
ATOM      9  N   GLY A   3      -7.876  33.060  11.554  0.00  0.00    -0.295 N 
ATOM     10  H   GLY A   3      -8.169  32.062  11.540  0.00  0.00    +0.150 HD
BRANCH   7  11
ATOM     11  CA  ILE A   2      -6.814  32.496  13.661  0.00  0.00    +0.148 C 
BRANCH  11  14
ATOM     12  C   GLY A   1      -8.935  32.281  14.854  0.00  0.00    +0.240 C 
ATOM     13  O   GLY A   1      -8.864  33.440  15.271  0.00  0.00    -0.274 OA
ATOM     14  N   ILE A   2      -8.011  31.756  14.062  0.00  0.00    -0.297 N 
ATOM     15  H   ILE A   2      -8.141  30.785  13.714  0.00  0.00    +0.150 HD
BRANCH  12  16
ATOM     16  CA  GLY A   1     -10.096  31.398  15.253  0.00  0.00    +0.169 C 
BRANCH  16  17
ATOM     17  N   GLY A   1     -10.337  30.292  14.334  0.00  0.00    -0.236 NA
ATOM     18  H   GLY A   1     -10.051  29.322  14.577  0.00  0.00    +0.142 HD
ENDBRANCH  16  17
ENDBRANCH  12  16
ENDBRANCH  11  14
BRANCH  11  19
ATOM     19  CB  ILE A   2      -5.702  31.534  13.193  0.00  0.00    +0.027 C 
ATOM     20  CG2 ILE A   2      -4.486  32.301  12.704  0.00  0.00    +0.002 C 
BRANCH  19  21
ATOM     21  CG1 ILE A   2      -5.290  30.495  14.242  0.00  0.00    +0.002 C 
ATOM     22  CD1 ILE A   2      -4.173  29.568  13.812  0.00  0.00    +0.000 C 
ENDBRANCH  19  21
ENDBRANCH  11  19
ENDBRANCH   7  11
ENDBRANCH   6   9
ENDBRANCH   2   6
ENDBRANCH   1   3
BRANCH   1  23
ATOM     23  C   ILE A   4      -5.330  30.941   8.046  0.00  0.00    +0.241 C 
ATOM     24  O   ILE A   4      -4.954  30.419   9.094  0.00  0.00    -0.273 OA
ATOM     25  N   ASN A   5      -5.300  30.297   6.879  0.00  0.00    -0.297 N 
ATOM     26  H   ASN A   5      -5.625  30.756   6.004  0.00  0.00    +0.150 HD
BRANCH  25  27
ATOM     27  CA  ASN A   5      -4.794  28.920   6.867  0.00  0.00    +0.158 C 
BRANCH  27  28
ATOM     28  C   ASN A   5      -3.277  28.928   6.984  0.00  0.00    +0.241 C 
ATOM     29  N   ILE A   6      -2.771  28.114   7.905  0.00  0.00    -0.298 N 
ATOM     30  H   ILE A   6      -3.400  27.462   8.415  0.00  0.00    +0.150 HD
ATOM     31  O   ASN A   5      -2.579  29.659   6.281  0.00  0.00    -0.273 OA
BRANCH  29  32
ATOM     32  CA  ILE A   6      -1.345  28.125   8.208  0.00  0.00    +0.137 C 
BRANCH  32  33
ATOM     33  C   ILE A   6      -0.755  26.724   8.049  0.00  0.00    +0.227 C 
ATOM     34  O   ILE A   6      -1.140  25.785   8.749  0.00  0.00    -0.286 OA
ENDBRANCH  32  33
BRANCH  32  35
ATOM     35  CB  ILE A   6      -1.079  28.671   9.618  0.00  0.00    +0.026 C 
ATOM     36  CG2 ILE A   6       0.358  28.401  10.038  0.00  0.00    +0.002 C 
BRANCH  35  37
ATOM     37  CG1 ILE A   6      -1.411  30.158   9.790  0.00  0.00    +0.002 C 
ATOM     38  CD1 ILE A   6      -1.776  30.539  11.211  0.00  0.00    +0.000 C 
ENDBRANCH  35  37
ENDBRANCH  32  35
ENDBRANCH  29  32
ENDBRANCH  27  28
BRANCH  27  39
ATOM     39  CB  ASN A   5      -5.298  28.205   5.612  0.00  0.00    +0.114 C 
BRANCH  39  40
ATOM     40  CG  ASN A   5      -6.822  28.195   5.620  0.00  0.00    +0.222 C 
ATOM     41  OD1 ASN A   5      -7.429  27.856   6.640  0.00  0.00    -0.275 OA
ATOM     42  ND2 ASN A   5      -7.428  28.576   4.508  0.00  0.00    -0.329 N 
ATOM     43 HD21 ASN A   5      -8.467  28.600   4.464  0.00  0.00    +0.145 HD
ATOM     44 HD22 ASN A   5      -6.866  28.851   3.678  0.00  0.00    +0.145 HD
ENDBRANCH  39  40
ENDBRANCH  27  39
ENDBRANCH  25  27
ENDBRANCH   1  23
BRANCH   1  45
ATOM     45  CB  ILE A   4      -4.604  33.295   7.783  0.00  0.00    +0.027 C 
ATOM     46  CG2 ILE A   4      -4.815  34.133   6.527  0.00  0.00    +0.002 C 
BRANCH  45  47
ATOM     47  CG1 ILE A   4      -4.211  34.171   8.972  0.00  0.00    +0.002 C 
ATOM     48  CD1 ILE A   4      -3.006  35.052   8.744  0.00  0.00    +0.000 C 
ENDBRANCH  45  47
ENDBRANCH   1  45
TORSDOF 20
REMARK  Name = ../refined-set-2016/3uri/3uri_pocket.pdb
REMARK  252 active torsions:
REMARK  status: ('A' for Active; 'I' for Inactive)
REMARK    1  A    between atoms: _1  and  _3
REMARK    2  A    between atoms: _3  and  _4
REMARK    3  A    between atoms: _3  and  _6
REMARK    4  A    between atoms: _6  and  _7
REMARK    5  A    between atoms: _10  and  _12
REMARK    6  A    between atoms: _12  and  _13
REMARK    7  A    between atoms: _12  and  _15
REMARK    8  A    between atoms: _15  and  _16
REMARK    9  A    between atoms: _19  and  _21
REMARK   10  A    between atoms: _21  and  _22
REMARK   11  A    between atoms: _21  and  _24
REMARK   12  A    between atoms: _24  and  _25
REMARK   13  A    between atoms: _28  and  _30
REMARK   14  A    between atoms: _30  and  _31
REMARK   15  A    between atoms: _30  and  _33
REMARK   16  A    between atoms: _33  and  _34
REMARK   17  A    between atoms: _37  and  _39
REMARK   18  A    between atoms: _39  and  _40
REMARK   19  A    between atoms: _39  and  _42
REMARK   20  A    between atoms: _42  and  _43
REMARK   21  A    between atoms: _46  and  _48
REMARK   22  A    between atoms: _48  and  _49
REMARK   23  A    between atoms: _52  and  _54
REMARK   24  A    between atoms: _54  and  _55
REMARK   25  A    between atoms: _54  and  _57
REMARK   26  A    between atoms: _57  and  _58
REMARK   27  A    between atoms: _63  and  _64
REMARK   28  A    between atoms: _66  and  _68
REMARK   29  A    between atoms: _68  and  _69
REMARK   30  A    between atoms: _68  and  _71
REMARK   31  A    between atoms: _71  and  _72
REMARK   32  A    between atoms: _75  and  _77
REMARK   33  A    between atoms: _77  and  _78
REMARK   34  A    between atoms: _77  and  _80
REMARK   35  A    between atoms: _80  and  _81
REMARK   36  A    between atoms: _84  and  _86
REMARK   37  A    between atoms: _86  and  _87
REMARK   38  A    between atoms: _86  and  _89
REMARK   39  A    between atoms: _89  and  _90
REMARK   40  A    between atoms: _96  and  _98
REMARK   41  A    between atoms: _98  and  _99
REMARK   42  A    between atoms: _98  and  _101
REMARK   43  A    between atoms: _101  and  _102
REMARK   44  A    between atoms: _105  and  _107
REMARK   45  A    between atoms: _107  and  _108
REMARK   46  A    between atoms: _107  and  _110
REMARK   47  A    between atoms: _110  and  _111
REMARK   48  A    between atoms: _114  and  _116
REMARK   49  A    between atoms: _116  and  _117
REMARK   50  A    between atoms: _119  and  _121
REMARK   51  A    between atoms: _121  and  _122
REMARK   52  A    between atoms: _121  and  _124
REMARK   53  A    between atoms: _124  and  _125
REMARK   54  A    between atoms: _127  and  _129
REMARK   55  A    between atoms: _129  and  _130
REMARK   56  A    between atoms: _129  and  _132
REMARK   57  A    between atoms: _132  and  _133
REMARK   58  A    between atoms: _135  and  _137
REMARK   59  A    between atoms: _137  and  _138
REMARK   60  A    between atoms: _137  and  _140
REMARK   61  A    between atoms: _140  and  _141
REMARK   62  A    between atoms: _144  and  _146
REMARK   63  A    between atoms: _146  and  _147
REMARK   64  A    between atoms: _146  and  _149
REMARK   65  A    between atoms: _149  and  _150
REMARK   66  A    between atoms: _160  and  _162
REMARK   67  A    between atoms: _162  and  _163
REMARK   68  A    between atoms: _162  and  _165
REMARK   69  A    between atoms: _165  and  _166
REMARK   70  A    between atoms: _168  and  _170
REMARK   71  A    between atoms: _170  and  _171
REMARK   72  A    between atoms: _170  and  _173
REMARK   73  A    between atoms: _173  and  _174
REMARK   74  A    between atoms: _177  and  _179
REMARK   75  A    between atoms: _179  and  _180
REMARK   76  A    between atoms: _179  and  _182
REMARK   77  A    between atoms: _182  and  _183
REMARK   78  A    between atoms: _185  and  _187
REMARK   79  A    between atoms: _187  and  _188
REMARK   80  A    between atoms: _187  and  _190
REMARK   81  A    between atoms: _190  and  _191
REMARK   82  A    between atoms: _196  and  _197
REMARK   83  A    between atoms: _199  and  _201
REMARK   84  A    between atoms: _201  and  _202
REMARK   85  A    between atoms: _204  and  _206
REMARK   86  A    between atoms: _206  and  _207
REMARK   87  A    between atoms: _206  and  _209
REMARK   88  A    between atoms: _209  and  _210
REMARK   89  A    between atoms: _213  and  _215
REMARK   90  A    between atoms: _215  and  _216
REMARK   91  A    between atoms: _218  and  _220
REMARK   92  A    between atoms: _220  and  _221
REMARK   93  A    between atoms: _220  and  _223
REMARK   94  A    between atoms: _223  and  _224
REMARK   95  A    between atoms: _226  and  _228
REMARK   96  A    between atoms: _228  and  _229
REMARK   97  A    between atoms: _228  and  _231
REMARK   98  A    between atoms: _231  and  _232
REMARK   99  A    between atoms: _234  and  _236
REMARK  100  A    between atoms: _236  and  _237
REMARK  101  A    between atoms: _236  and  _239
REMARK  102  A    between atoms: _239  and  _240
REMARK  103  A    between atoms: _242  and  _244
REMARK  104  A    between atoms: _244  and  _245
REMARK  105  A    between atoms: _244  and  _247
REMARK  106  A    between atoms: _247  and  _248
REMARK  107  A    between atoms: _250  and  _252
REMARK  108  A    between atoms: _252  and  _253
REMARK  109  A    between atoms: _252  and  _255
REMARK  110  A    between atoms: _255  and  _256
REMARK  111  A    between atoms: _262  and  _264
REMARK  112  A    between atoms: _264  and  _265
REMARK  113  A    between atoms: _264  and  _267
REMARK  114  A    between atoms: _267  and  _268
REMARK  115  A    between atoms: _268  and  _269
REMARK  116  A    between atoms: _272  and  _274
REMARK  117  A    between atoms: _274  and  _275
REMARK  118  A    between atoms: _274  and  _277
REMARK  119  A    between atoms: _277  and  _278
REMARK  120  A    between atoms: _281  and  _283
REMARK  121  A    between atoms: _283  and  _284
REMARK  122  A    between atoms: _283  and  _286
REMARK  123  A    between atoms: _286  and  _287
REMARK  124  A    between atoms: _290  and  _292
REMARK  125  A    between atoms: _292  and  _293
REMARK  126  A    between atoms: _292  and  _295
REMARK  127  A    between atoms: _295  and  _296
REMARK  128  A    between atoms: _299  and  _301
REMARK  129  A    between atoms: _301  and  _302
REMARK  130  A    between atoms: _304  and  _306
REMARK  131  A    between atoms: _306  and  _307
REMARK  132  A    between atoms: _306  and  _309
REMARK  133  A    between atoms: _309  and  _310
REMARK  134  A    between atoms: _313  and  _315
REMARK  135  A    between atoms: _315  and  _316
REMARK  136  A    between atoms: _315  and  _318
REMARK  137  A    between atoms: _318  and  _319
REMARK  138  A    between atoms: _322  and  _324
REMARK  139  A    between atoms: _324  and  _325
REMARK  140  A    between atoms: _328  and  _330
REMARK  141  A    between atoms: _330  and  _331
REMARK  142  A    between atoms: _330  and  _333
REMARK  143  A    between atoms: _333  and  _334
REMARK  144  A    between atoms: _337  and  _339
REMARK  145  A    between atoms: _339  and  _340
REMARK  146  A    between atoms: _339  and  _342
REMARK  147  A    between atoms: _342  and  _343
REMARK  148  A    between atoms: _348  and  _350
REMARK  149  A    between atoms: _350  and  _351
REMARK  150  A    between atoms: _350  and  _353
REMARK  151  A    between atoms: _353  and  _354
REMARK  152  A    between atoms: _357  and  _359
REMARK  153  A    between atoms: _359  and  _360
REMARK  154  A    between atoms: _359  and  _362
REMARK  155  A    between atoms: _362  and  _363
REMARK  156  A    between atoms: _363  and  _364
REMARK  157  A    between atoms: _369  and  _371
REMARK  158  A    between atoms: _371  and  _372
REMARK  159  A    between atoms: _374  and  _376
REMARK  160  A    between atoms: _376  and  _377
REMARK  161  A    between atoms: _376  and  _379
REMARK  162  A    between atoms: _379  and  _380
REMARK  163  A    between atoms: _386  and  _388
REMARK  164  A    between atoms: _388  and  _389
REMARK  165  A    between atoms: _388  and  _391
REMARK  166  A    between atoms: _391  and  _392
REMARK  167  A    between atoms: _395  and  _397
REMARK  168  A    between atoms: _397  and  _398
REMARK  169  A    between atoms: _401  and  _403
REMARK  170  A    between atoms: _403  and  _404
REMARK  171  A    between atoms: _403  and  _406
REMARK  172  A    between atoms: _406  and  _407
REMARK  173  A    between atoms: _410  and  _412
REMARK  174  A    between atoms: _412  and  _413
REMARK  175  A    between atoms: _412  and  _415
REMARK  176  A    between atoms: _415  and  _416
REMARK  177  A    between atoms: _419  and  _421
REMARK  178  A    between atoms: _421  and  _422
REMARK  179  A    between atoms: _424  and  _426
REMARK  180  A    between atoms: _426  and  _427
REMARK  181  A    between atoms: _426  and  _429
REMARK  182  A    between atoms: _429  and  _430
REMARK  183  A    between atoms: _433  and  _435
REMARK  184  A    between atoms: _435  and  _436
REMARK  185  A    between atoms: _435  and  _438
REMARK  186  A    between atoms: _438  and  _439
REMARK  187  A    between atoms: _442  and  _444
REMARK  188  A    between atoms: _444  and  _445
REMARK  189  A    between atoms: _444  and  _447
REMARK  190  A    between atoms: _447  and  _448
REMARK  191  A    between atoms: _451  and  _453
REMARK  192  A    between atoms: _453  and  _454
REMARK  193  A    between atoms: _453  and  _456
REMARK  194  A    between atoms: _456  and  _457
REMARK  195  A    between atoms: _460  and  _462
REMARK  196  A    between atoms: _462  and  _463
REMARK  197  A    between atoms: _462  and  _465
REMARK  198  A    between atoms: _465  and  _466
REMARK  199  A    between atoms: _471  and  _472
REMARK  200  A    between atoms: _474  and  _476
REMARK  201  A    between atoms: _476  and  _477
REMARK  202  A    between atoms: _476  and  _479
REMARK  203  A    between atoms: _482  and  _484
REMARK  204  A    between atoms: _484  and  _485
REMARK  205  A    between atoms: _487  and  _489
REMARK  206  A    between atoms: _489  and  _490
REMARK  207  A    between atoms: _489  and  _492
REMARK  208  A    between atoms: _492  and  _493
REMARK  209  A    between atoms: _499  and  _501
REMARK  210  A    between atoms: _501  and  _502
REMARK  211  A    between atoms: _504  and  _506
REMARK  212  A    between atoms: _506  and  _507
REMARK  213  A    between atoms: _506  and  _509
REMARK  214  A    between atoms: _509  and  _510
REMARK  215  A    between atoms: _516  and  _518
REMARK  216  A    between atoms: _518  and  _519
REMARK  217  A    between atoms: _521  and  _523
REMARK  218  A    between atoms: _523  and  _524
REMARK  219  A    between atoms: _526  and  _528
REMARK  220  A    between atoms: _528  and  _529
REMARK  221  A    between atoms: _528  and  _531
REMARK  222  A    between atoms: _531  and  _532
REMARK  223  A    between atoms: _532  and  _533
REMARK  224  A    between atoms: _538  and  _540
REMARK  225  A    between atoms: _540  and  _541
REMARK  226  A    between atoms: _543  and  _545
REMARK  227  A    between atoms: _545  and  _546
REMARK  228  A    between atoms: _545  and  _548
REMARK  229  A    between atoms: _548  and  _549
REMARK  230  A    between atoms: _552  and  _554
REMARK  231  A    between atoms: _554  and  _555
REMARK  232  A    between atoms: _557  and  _559
REMARK  233  A    between atoms: _559  and  _560
REMARK  234  A    between atoms: _559  and  _562
REMARK  235  A    between atoms: _562  and  _563
REMARK  236  A    between atoms: _566  and  _568
REMARK  237  A    between atoms: _568  and  _569
REMARK  238  A    between atoms: _568  and  _571
REMARK  239  A    between atoms: _571  and  _572
REMARK  240  A    between atoms: _577  and  _579
REMARK  241  A    between atoms: _579  and  _580
REMARK  242  A    between atoms: _579  and  _582
REMARK  243  A    between atoms: _582  and  _583
REMARK  244  A    between atoms: _586  and  _588
REMARK  245  A    between atoms: _588  and  _589
REMARK  246  A    between atoms: _591  and  _593
REMARK  247  A    between atoms: _593  and  _594
REMARK  248  A    between atoms: _593  and  _596
REMARK  249  A    between atoms: _596  and  _597
REMARK  250  A    between atoms: _600  and  _602
REMARK  251  A    between atoms: _602  and  _603
REMARK  252  A    between atoms: _602  and  _605
REMARK                            x       y       z     vdW  Elec       q    Type
REMARK                         _______ _______ _______ _____ _____    ______ ____
ROOT
ATOM      1  CA  ASP A   2       6.142  22.944  10.517  0.00  0.00    +0.160 C 
ENDROOT
BRANCH   1   3
ATOM      2  C   GLY A   1       4.243  24.203   9.622  0.00  0.00    +0.240 C 
ATOM      3  N   ASP A   2       5.086  23.939  10.622  0.00  0.00    -0.297 N 
ATOM      4  H   ASP A   2       4.984  24.466  11.513  0.00  0.00    +0.150 HD
ATOM      5  O   GLY A   1       4.273  23.582   8.558  0.00  0.00    -0.274 OA
BRANCH   2   6
ATOM      6  CA  GLY A   1       3.239  25.310   9.847  0.00  0.00    +0.169 C 
BRANCH   6   7
ATOM      7  N   GLY A   1       2.094  25.263   8.955  0.00  0.00    -0.236 NA
ATOM      8  H   GLY A   1       1.155  25.057   9.350  0.00  0.00    +0.142 HD
ENDBRANCH   6   7
ENDBRANCH   2   6
ENDBRANCH   1   3
BRANCH   1   9
ATOM      9  C   ASP A   2       5.647  21.518  10.310  0.00  0.00    +0.241 C 
ATOM     10  N   VAL A   3       4.464  21.128  10.771  0.00  0.00    -0.298 N 
ATOM     11  H   VAL A   3       3.820  21.809  11.222  0.00  0.00    +0.150 HD
ATOM     12  O   ASP A   2       6.368  20.704   9.721  0.00  0.00    -0.273 OA
BRANCH  10  13
ATOM     13  CA  VAL A   3       4.084  19.717  10.631  0.00  0.00    +0.137 C 
BRANCH  13  14
ATOM     14  CB  VAL A   3       2.803  19.387  11.418  0.00  0.00    +0.026 C 
ATOM     15  CG2 VAL A   3       3.011  19.636  12.909  0.00  0.00    +0.002 C 
ATOM     16  CG1 VAL A   3       1.630  20.206  10.915  0.00  0.00    +0.002 C 
ENDBRANCH  13  14
BRANCH  13  17
ATOM     17  C   VAL A   3       3.911  19.337   9.165  0.00  0.00    +0.227 C 
ATOM     18  O   VAL A   3       4.144  18.183   8.797  0.00  0.00    -0.286 OA
ENDBRANCH  13  17
ENDBRANCH  10  13
ENDBRANCH   1   9
BRANCH   1  19
ATOM     19  CB  ASP A   2       7.025  22.976  11.776  0.00  0.00    +0.143 C 
BRANCH  19  20
ATOM     20  CG  ASP A   2       7.714  24.313  11.962  0.00  0.00    +0.367 C 
ATOM     21  OD2 ASP A   2       8.037  24.662  13.122  0.00  0.00    -0.246 OA
ATOM     22  OD1 ASP A   2       7.927  25.011  10.945  0.00  0.00    -0.246 OA
ENDBRANCH  19  20
ENDBRANCH   1  19
TORSDOF 9
REMARK  Name = ../refined-set-2016/3uri/3uri_pocket.pdb
REMARK  252 active torsions:
REMARK  status: ('A' for Active; 'I' for Inactive)
REMARK    1  A    between atoms: _1  and  _3
REMARK    2  A    between atoms: _3  and  _4
REMARK    3  A    between atoms: _3  and  _6
REMARK    4  A    between atoms: _6  and  _7
REMARK    5  A    between atoms: _10  and  _12
REMARK    6  A    between atoms: _12  and  _13
REMARK    7  A    between atoms: _12  and  _15
REMARK    8  A    between atoms: _15  and  _16
REMARK    9  A    between atoms: _19  and  _21
REMARK   10  A    between atoms: _21  and  _22
REMARK   11  A    between atoms: _21  and  _24
REMARK   12  A    between atoms: _24  and  _25
REMARK   13  A    between atoms: _28  and  _30
REMARK   14  A    between atoms: _30  and  _31
REMARK   15  A    between atoms: _30  and  _33
REMARK   16  A    between atoms: _33  and  _34
REMARK   17  A    between atoms: _37  and  _39
REMARK   18  A    between atoms: _39  and  _40
REMARK   19  A    between atoms: _39  and  _42
REMARK   20  A    between atoms: _42  and  _43
REMARK   21  A    between atoms: _46  and  _48
REMARK   22  A    between atoms: _48  and  _49
REMARK   23  A    between atoms: _52  and  _54
REMARK   24  A    between atoms: _54  and  _55
REMARK   25  A    between atoms: _54  and  _57
REMARK   26  A    between atoms: _57  and  _58
REMARK   27  A    between atoms: _63  and  _64
REMARK   28  A    between atoms: _66  and  _68
REMARK   29  A    between atoms: _68  and  _69
REMARK   30  A    between atoms: _68  and  _71
REMARK   31  A    between atoms: _71  and  _72
REMARK   32  A    between atoms: _75  and  _77
REMARK   33  A    between atoms: _77  and  _78
REMARK   34  A    between atoms: _77  and  _80
REMARK   35  A    between atoms: _80  and  _81
REMARK   36  A    between atoms: _84  and  _86
REMARK   37  A    between atoms: _86  and  _87
REMARK   38  A    between atoms: _86  and  _89
REMARK   39  A    between atoms: _89  and  _90
REMARK   40  A    between atoms: _96  and  _98
REMARK   41  A    between atoms: _98  and  _99
REMARK   42  A    between atoms: _98  and  _101
REMARK   43  A    between atoms: _101  and  _102
REMARK   44  A    between atoms: _105  and  _107
REMARK   45  A    between atoms: _107  and  _108
REMARK   46  A    between atoms: _107  and  _110
REMARK   47  A    between atoms: _110  and  _111
REMARK   48  A    between atoms: _114  and  _116
REMARK   49  A    between atoms: _116  and  _117
REMARK   50  A    between atoms: _119  and  _121
REMARK   51  A    between atoms: _121  and  _122
REMARK   52  A    between atoms: _121  and  _124
REMARK   53  A    between atoms: _124  and  _125
REMARK   54  A    between atoms: _127  and  _129
REMARK   55  A    between atoms: _129  and  _130
REMARK   56  A    between atoms: _129  and  _132
REMARK   57  A    between atoms: _132  and  _133
REMARK   58  A    between atoms: _135  and  _137
REMARK   59  A    between atoms: _137  and  _138
REMARK   60  A    between atoms: _137  and  _140
REMARK   61  A    between atoms: _140  and  _141
REMARK   62  A    between atoms: _144  and  _146
REMARK   63  A    between atoms: _146  and  _147
REMARK   64  A    between atoms: _146  and  _149
REMARK   65  A    between atoms: _149  and  _150
REMARK   66  A    between atoms: _160  and  _162
REMARK   67  A    between atoms: _162  and  _163
REMARK   68  A    between atoms: _162  and  _165
REMARK   69  A    between atoms: _165  and  _166
REMARK   70  A    between atoms: _168  and  _170
REMARK   71  A    between atoms: _170  and  _171
REMARK   72  A    between atoms: _170  and  _173
REMARK   73  A    between atoms: _173  and  _174
REMARK   74  A    between atoms: _177  and  _179
REMARK   75  A    between atoms: _179  and  _180
REMARK   76  A    between atoms: _179  and  _182
REMARK   77  A    between atoms: _182  and  _183
REMARK   78  A    between atoms: _185  and  _187
REMARK   79  A    between atoms: _187  and  _188
REMARK   80  A    between atoms: _187  and  _190
REMARK   81  A    between atoms: _190  and  _191
REMARK   82  A    between atoms: _196  and  _197
REMARK   83  A    between atoms: _199  and  _201
REMARK   84  A    between atoms: _201  and  _202
REMARK   85  A    between atoms: _204  and  _206
REMARK   86  A    between atoms: _206  and  _207
REMARK   87  A    between atoms: _206  and  _209
REMARK   88  A    between atoms: _209  and  _210
REMARK   89  A    between atoms: _213  and  _215
REMARK   90  A    between atoms: _215  and  _216
REMARK   91  A    between atoms: _218  and  _220
REMARK   92  A    between atoms: _220  and  _221
REMARK   93  A    between atoms: _220  and  _223
REMARK   94  A    between atoms: _223  and  _224
REMARK   95  A    between atoms: _226  and  _228
REMARK   96  A    between atoms: _228  and  _229
REMARK   97  A    between atoms: _228  and  _231
REMARK   98  A    between atoms: _231  and  _232
REMARK   99  A    between atoms: _234  and  _236
REMARK  100  A    between atoms: _236  and  _237
REMARK  101  A    between atoms: _236  and  _239
REMARK  102  A    between atoms: _239  and  _240
REMARK  103  A    between atoms: _242  and  _244
REMARK  104  A    between atoms: _244  and  _245
REMARK  105  A    between atoms: _244  and  _247
REMARK  106  A    between atoms: _247  and  _248
REMARK  107  A    between atoms: _250  and  _252
REMARK  108  A    between atoms: _252  and  _253
REMARK  109  A    between atoms: _252  and  _255
REMARK  110  A    between atoms: _255  and  _256
REMARK  111  A    between atoms: _262  and  _264
REMARK  112  A    between atoms: _264  and  _265
REMARK  113  A    between atoms: _264  and  _267
REMARK  114  A    between atoms: _267  and  _268
REMARK  115  A    between atoms: _268  and  _269
REMARK  116  A    between atoms: _272  and  _274
REMARK  117  A    between atoms: _274  and  _275
REMARK  118  A    between atoms: _274  and  _277
REMARK  119  A    between atoms: _277  and  _278
REMARK  120  A    between atoms: _281  and  _283
REMARK  121  A    between atoms: _283  and  _284
REMARK  122  A    between atoms: _283  and  _286
REMARK  123  A    between atoms: _286  and  _287
REMARK  124  A    between atoms: _290  and  _292
REMARK  125  A    between atoms: _292  and  _293
REMARK  126  A    between atoms: _292  and  _295
REMARK  127  A    between atoms: _295  and  _296
REMARK  128  A    between atoms: _299  and  _301
REMARK  129  A    between atoms: _301  and  _302
REMARK  130  A    between atoms: _304  and  _306
REMARK  131  A    between atoms: _306  and  _307
REMARK  132  A    between atoms: _306  and  _309
REMARK  133  A    between atoms: _309  and  _310
REMARK  134  A    between atoms: _313  and  _315
REMARK  135  A    between atoms: _315  and  _316
REMARK  136  A    between atoms: _315  and  _318
REMARK  137  A    between atoms: _318  and  _319
REMARK  138  A    between atoms: _322  and  _324
REMARK  139  A    between atoms: _324  and  _325
REMARK  140  A    between atoms: _328  and  _330
REMARK  141  A    between atoms: _330  and  _331
REMARK  142  A    between atoms: _330  and  _333
REMARK  143  A    between atoms: _333  and  _334
REMARK  144  A    between atoms: _337  and  _339
REMARK  145  A    between atoms: _339  and  _340
REMARK  146  A    between atoms: _339  and  _342
REMARK  147  A    between atoms: _342  and  _343
REMARK  148  A    between atoms: _348  and  _350
REMARK  149  A    between atoms: _350  and  _351
REMARK  150  A    between atoms: _350  and  _353
REMARK  151  A    between atoms: _353  and  _354
REMARK  152  A    between atoms: _357  and  _359
REMARK  153  A    between atoms: _359  and  _360
REMARK  154  A    between atoms: _359  and  _362
REMARK  155  A    between atoms: _362  and  _363
REMARK  156  A    between atoms: _363  and  _364
REMARK  157  A    between atoms: _369  and  _371
REMARK  158  A    between atoms: _371  and  _372
REMARK  159  A    between atoms: _374  and  _376
REMARK  160  A    between atoms: _376  and  _377
REMARK  161  A    between atoms: _376  and  _379
REMARK  162  A    between atoms: _379  and  _380
REMARK  163  A    between atoms: _386  and  _388
REMARK  164  A    between atoms: _388  and  _389
REMARK  165  A    between atoms: _388  and  _391
REMARK  166  A    between atoms: _391  and  _392
REMARK  167  A    between atoms: _395  and  _397
REMARK  168  A    between atoms: _397  and  _398
REMARK  169  A    between atoms: _401  and  _403
REMARK  170  A    between atoms: _403  and  _404
REMARK  171  A    between atoms: _403  and  _406
REMARK  172  A    between atoms: _406  and  _407
REMARK  173  A    between atoms: _410  and  _412
REMARK  174  A    between atoms: _412  and  _413
REMARK  175  A    between atoms: _412  and  _415
REMARK  176  A    between atoms: _415  and  _416
REMARK  177  A    between atoms: _419  and  _421
REMARK  178  A    between atoms: _421  and  _422
REMARK  179  A    between atoms: _424  and  _426
REMARK  180  A    between atoms: _426  and  _427
REMARK  181  A    between atoms: _426  and  _429
REMARK  182  A    between atoms: _429  and  _430
REMARK  183  A    between atoms: _433  and  _435
REMARK  184  A    between atoms: _435  and  _436
REMARK  185  A    between atoms: _435  and  _438
REMARK  186  A    between atoms: _438  and  _439
REMARK  187  A    between atoms: _442  and  _444
REMARK  188  A    between atoms: _444  and  _445
REMARK  189  A    between atoms: _444  and  _447
REMARK  190  A    between atoms: _447  and  _448
REMARK  191  A    between atoms: _451  and  _453
REMARK  192  A    between atoms: _453  and  _454
REMARK  193  A    between atoms: _453  and  _456
REMARK  194  A    between atoms: _456  and  _457
REMARK  195  A    between atoms: _460  and  _462
REMARK  196  A    between atoms: _462  and  _463
REMARK  197  A    between atoms: _462  and  _465
REMARK  198  A    between atoms: _465  and  _466
REMARK  199  A    between atoms: _471  and  _472
REMARK  200  A    between atoms: _474  and  _476
REMARK  201  A    between atoms: _476  and  _477
REMARK  202  A    between atoms: _476  and  _479
REMARK  203  A    between atoms: _482  and  _484
REMARK  204  A    between atoms: _484  and  _485
REMARK  205  A    between atoms: _487  and  _489
REMARK  206  A    between atoms: _489  and  _490
REMARK  207  A    between atoms: _489  and  _492
REMARK  208  A    between atoms: _492  and  _493
REMARK  209  A    between atoms: _499  and  _501
REMARK  210  A    between atoms: _501  and  _502
REMARK  211  A    between atoms: _504  and  _506
REMARK  212  A    between atoms: _506  and  _507
REMARK  213  A    between atoms: _506  and  _509
REMARK  214  A    between atoms: _509  and  _510
REMARK  215  A    between atoms: _516  and  _518
REMARK  216  A    between atoms: _518  and  _519
REMARK  217  A    between atoms: _521  and  _523
REMARK  218  A    between atoms: _523  and  _524
REMARK  219  A    between atoms: _526  and  _528
REMARK  220  A    between atoms: _528  and  _529
REMARK  221  A    between atoms: _528  and  _531
REMARK  222  A    between atoms: _531  and  _532
REMARK  223  A    between atoms: _532  and  _533
REMARK  224  A    between atoms: _538  and  _540
REMARK  225  A    between atoms: _540  and  _541
REMARK  226  A    between atoms: _543  and  _545
REMARK  227  A    between atoms: _545  and  _546
REMARK  228  A    between atoms: _545  and  _548
REMARK  229  A    between atoms: _548  and  _549
REMARK  230  A    between atoms: _552  and  _554
REMARK  231  A    between atoms: _554  and  _555
REMARK  232  A    between atoms: _557  and  _559
REMARK  233  A    between atoms: _559  and  _560
REMARK  234  A    between atoms: _559  and  _562
REMARK  235  A    between atoms: _562  and  _563
REMARK  236  A    between atoms: _566  and  _568
REMARK  237  A    between atoms: _568  and  _569
REMARK  238  A    between atoms: _568  and  _571
REMARK  239  A    between atoms: _571  and  _572
REMARK  240  A    between atoms: _577  and  _579
REMARK  241  A    between atoms: _579  and  _580
REMARK  242  A    between atoms: _579  and  _582
REMARK  243  A    between atoms: _582  and  _583
REMARK  244  A    between atoms: _586  and  _588
REMARK  245  A    between atoms: _588  and  _589
REMARK  246  A    between atoms: _591  and  _593
REMARK  247  A    between atoms: _593  and  _594
REMARK  248  A    between atoms: _593  and  _596
REMARK  249  A    between atoms: _596  and  _597
REMARK  250  A    between atoms: _600  and  _602
REMARK  251  A    between atoms: _602  and  _603
REMARK  252  A    between atoms: _602  and  _605
REMARK                            x       y       z     vdW  Elec       q    Type
REMARK                         _______ _______ _______ _____ _____    ______ ____
ROOT
ATOM      1  O   HOH     1       2.036  44.020  15.950  0.00  0.00    +0.000 OA
ENDROOT
TORSDOF 0
REMARK  Name = ../refined-set-2016/3uri/3uri_pocket.pdb
REMARK  252 active torsions:
REMARK  status: ('A' for Active; 'I' for Inactive)
REMARK    1  A    between atoms: _1  and  _3
REMARK    2  A    between atoms: _3  and  _4
REMARK    3  A    between atoms: _3  and  _6
REMARK    4  A    between atoms: _6  and  _7
REMARK    5  A    between atoms: _10  and  _12
REMARK    6  A    between atoms: _12  and  _13
REMARK    7  A    between atoms: _12  and  _15
REMARK    8  A    between atoms: _15  and  _16
REMARK    9  A    between atoms: _19  and  _21
REMARK   10  A    between atoms: _21  and  _22
REMARK   11  A    between atoms: _21  and  _24
REMARK   12  A    between atoms: _24  and  _25
REMARK   13  A    between atoms: _28  and  _30
REMARK   14  A    between atoms: _30  and  _31
REMARK   15  A    between atoms: _30  and  _33
REMARK   16  A    between atoms: _33  and  _34
REMARK   17  A    between atoms: _37  and  _39
REMARK   18  A    between atoms: _39  and  _40
REMARK   19  A    between atoms: _39  and  _42
REMARK   20  A    between atoms: _42  and  _43
REMARK   21  A    between atoms: _46  and  _48
REMARK   22  A    between atoms: _48  and  _49
REMARK   23  A    between atoms: _52  and  _54
REMARK   24  A    between atoms: _54  and  _55
REMARK   25  A    between atoms: _54  and  _57
REMARK   26  A    between atoms: _57  and  _58
REMARK   27  A    between atoms: _63  and  _64
REMARK   28  A    between atoms: _66  and  _68
REMARK   29  A    between atoms: _68  and  _69
REMARK   30  A    between atoms: _68  and  _71
REMARK   31  A    between atoms: _71  and  _72
REMARK   32  A    between atoms: _75  and  _77
REMARK   33  A    between atoms: _77  and  _78
REMARK   34  A    between atoms: _77  and  _80
REMARK   35  A    between atoms: _80  and  _81
REMARK   36  A    between atoms: _84  and  _86
REMARK   37  A    between atoms: _86  and  _87
REMARK   38  A    between atoms: _86  and  _89
REMARK   39  A    between atoms: _89  and  _90
REMARK   40  A    between atoms: _96  and  _98
REMARK   41  A    between atoms: _98  and  _99
REMARK   42  A    between atoms: _98  and  _101
REMARK   43  A    between atoms: _101  and  _102
REMARK   44  A    between atoms: _105  and  _107
REMARK   45  A    between atoms: _107  and  _108
REMARK   46  A    between atoms: _107  and  _110
REMARK   47  A    between atoms: _110  and  _111
REMARK   48  A    between atoms: _114  and  _116
REMARK   49  A    between atoms: _116  and  _117
REMARK   50  A    between atoms: _119  and  _121
REMARK   51  A    between atoms: _121  and  _122
REMARK   52  A    between atoms: _121  and  _124
REMARK   53  A    between atoms: _124  and  _125
REMARK   54  A    between atoms: _127  and  _129
REMARK   55  A    between atoms: _129  and  _130
REMARK   56  A    between atoms: _129  and  _132
REMARK   57  A    between atoms: _132  and  _133
REMARK   58  A    between atoms: _135  and  _137
REMARK   59  A    between atoms: _137  and  _138
REMARK   60  A    between atoms: _137  and  _140
REMARK   61  A    between atoms: _140  and  _141
REMARK   62  A    between atoms: _144  and  _146
REMARK   63  A    between atoms: _146  and  _147
REMARK   64  A    between atoms: _146  and  _149
REMARK   65  A    between atoms: _149  and  _150
REMARK   66  A    between atoms: _160  and  _162
REMARK   67  A    between atoms: _162  and  _163
REMARK   68  A    between atoms: _162  and  _165
REMARK   69  A    between atoms: _165  and  _166
REMARK   70  A    between atoms: _168  and  _170
REMARK   71  A    between atoms: _170  and  _171
REMARK   72  A    between atoms: _170  and  _173
REMARK   73  A    between atoms: _173  and  _174
REMARK   74  A    between atoms: _177  and  _179
REMARK   75  A    between atoms: _179  and  _180
REMARK   76  A    between atoms: _179  and  _182
REMARK   77  A    between atoms: _182  and  _183
REMARK   78  A    between atoms: _185  and  _187
REMARK   79  A    between atoms: _187  and  _188
REMARK   80  A    between atoms: _187  and  _190
REMARK   81  A    between atoms: _190  and  _191
REMARK   82  A    between atoms: _196  and  _197
REMARK   83  A    between atoms: _199  and  _201
REMARK   84  A    between atoms: _201  and  _202
REMARK   85  A    between atoms: _204  and  _206
REMARK   86  A    between atoms: _206  and  _207
REMARK   87  A    between atoms: _206  and  _209
REMARK   88  A    between atoms: _209  and  _210
REMARK   89  A    between atoms: _213  and  _215
REMARK   90  A    between atoms: _215  and  _216
REMARK   91  A    between atoms: _218  and  _220
REMARK   92  A    between atoms: _220  and  _221
REMARK   93  A    between atoms: _220  and  _223
REMARK   94  A    between atoms: _223  and  _224
REMARK   95  A    between atoms: _226  and  _228
REMARK   96  A    between atoms: _228  and  _229
REMARK   97  A    between atoms: _228  and  _231
REMARK   98  A    between atoms: _231  and  _232
REMARK   99  A    between atoms: _234  and  _236
REMARK  100  A    between atoms: _236  and  _237
REMARK  101  A    between atoms: _236  and  _239
REMARK  102  A    between atoms: _239  and  _240
REMARK  103  A    between atoms: _242  and  _244
REMARK  104  A    between atoms: _244  and  _245
REMARK  105  A    between atoms: _244  and  _247
REMARK  106  A    between atoms: _247  and  _248
REMARK  107  A    between atoms: _250  and  _252
REMARK  108  A    between atoms: _252  and  _253
REMARK  109  A    between atoms: _252  and  _255
REMARK  110  A    between atoms: _255  and  _256
REMARK  111  A    between atoms: _262  and  _264
REMARK  112  A    between atoms: _264  and  _265
REMARK  113  A    between atoms: _264  and  _267
REMARK  114  A    between atoms: _267  and  _268
REMARK  115  A    between atoms: _268  and  _269
REMARK  116  A    between atoms: _272  and  _274
REMARK  117  A    between atoms: _274  and  _275
REMARK  118  A    between atoms: _274  and  _277
REMARK  119  A    between atoms: _277  and  _278
REMARK  120  A    between atoms: _281  and  _283
REMARK  121  A    between atoms: _283  and  _284
REMARK  122  A    between atoms: _283  and  _286
REMARK  123  A    between atoms: _286  and  _287
REMARK  124  A    between atoms: _290  and  _292
REMARK  125  A    between atoms: _292  and  _293
REMARK  126  A    between atoms: _292  and  _295
REMARK  127  A    between atoms: _295  and  _296
REMARK  128  A    between atoms: _299  and  _301
REMARK  129  A    between atoms: _301  and  _302
REMARK  130  A    between atoms: _304  and  _306
REMARK  131  A    between atoms: _306  and  _307
REMARK  132  A    between atoms: _306  and  _309
REMARK  133  A    between atoms: _309  and  _310
REMARK  134  A    between atoms: _313  and  _315
REMARK  135  A    between atoms: _315  and  _316
REMARK  136  A    between atoms: _315  and  _318
REMARK  137  A    between atoms: _318  and  _319
REMARK  138  A    between atoms: _322  and  _324
REMARK  139  A    between atoms: _324  and  _325
REMARK  140  A    between atoms: _328  and  _330
REMARK  141  A    between atoms: _330  and  _331
REMARK  142  A    between atoms: _330  and  _333
REMARK  143  A    between atoms: _333  and  _334
REMARK  144  A    between atoms: _337  and  _339
REMARK  145  A    between atoms: _339  and  _340
REMARK  146  A    between atoms: _339  and  _342
REMARK  147  A    between atoms: _342  and  _343
REMARK  148  A    between atoms: _348  and  _350
REMARK  149  A    between atoms: _350  and  _351
REMARK  150  A    between atoms: _350  and  _353
REMARK  151  A    between atoms: _353  and  _354
REMARK  152  A    between atoms: _357  and  _359
REMARK  153  A    between atoms: _359  and  _360
REMARK  154  A    between atoms: _359  and  _362
REMARK  155  A    between atoms: _362  and  _363
REMARK  156  A    between atoms: _363  and  _364
REMARK  157  A    between atoms: _369  and  _371
REMARK  158  A    between atoms: _371  and  _372
REMARK  159  A    between atoms: _374  and  _376
REMARK  160  A    between atoms: _376  and  _377
REMARK  161  A    between atoms: _376  and  _379
REMARK  162  A    between atoms: _379  and  _380
REMARK  163  A    between atoms: _386  and  _388
REMARK  164  A    between atoms: _388  and  _389
REMARK  165  A    between atoms: _388  and  _391
REMARK  166  A    between atoms: _391  and  _392
REMARK  167  A    between atoms: _395  and  _397
REMARK  168  A    between atoms: _397  and  _398
REMARK  169  A    between atoms: _401  and  _403
REMARK  170  A    between atoms: _403  and  _404
REMARK  171  A    between atoms: _403  and  _406
REMARK  172  A    between atoms: _406  and  _407
REMARK  173  A    between atoms: _410  and  _412
REMARK  174  A    between atoms: _412  and  _413
REMARK  175  A    between atoms: _412  and  _415
REMARK  176  A    between atoms: _415  and  _416
REMARK  177  A    between atoms: _419  and  _421
REMARK  178  A    between atoms: _421  and  _422
REMARK  179  A    between atoms: _424  and  _426
REMARK  180  A    between atoms: _426  and  _427
REMARK  181  A    between atoms: _426  and  _429
REMARK  182  A    between atoms: _429  and  _430
REMARK  183  A    between atoms: _433  and  _435
REMARK  184  A    between atoms: _435  and  _436
REMARK  185  A    between atoms: _435  and  _438
REMARK  186  A    between atoms: _438  and  _439
REMARK  187  A    between atoms: _442  and  _444
REMARK  188  A    between atoms: _444  and  _445
REMARK  189  A    between atoms: _444  and  _447
REMARK  190  A    between atoms: _447  and  _448
REMARK  191  A    between atoms: _451  and  _453
REMARK  192  A    between atoms: _453  and  _454
REMARK  193  A    between atoms: _453  and  _456
REMARK  194  A    between atoms: _456  and  _457
REMARK  195  A    between atoms: _460  and  _462
REMARK  196  A    between atoms: _462  and  _463
REMARK  197  A    between atoms: _462  and  _465
REMARK  198  A    between atoms: _465  and  _466
REMARK  199  A    between atoms: _471  and  _472
REMARK  200  A    between atoms: _474  and  _476
REMARK  201  A    between atoms: _476  and  _477
REMARK  202  A    between atoms: _476  and  _479
REMARK  203  A    between atoms: _482  and  _484
REMARK  204  A    between atoms: _484  and  _485
REMARK  205  A    between atoms: _487  and  _489
REMARK  206  A    between atoms: _489  and  _490
REMARK  207  A    between atoms: _489  and  _492
REMARK  208  A    between atoms: _492  and  _493
REMARK  209  A    between atoms: _499  and  _501
REMARK  210  A    between atoms: _501  and  _502
REMARK  211  A    between atoms: _504  and  _506
REMARK  212  A    between atoms: _506  and  _507
REMARK  213  A    between atoms: _506  and  _509
REMARK  214  A    between atoms: _509  and  _510
REMARK  215  A    between atoms: _516  and  _518
REMARK  216  A    between atoms: _518  and  _519
REMARK  217  A    between atoms: _521  and  _523
REMARK  218  A    between atoms: _523  and  _524
REMARK  219  A    between atoms: _526  and  _528
REMARK  220  A    between atoms: _528  and  _529
REMARK  221  A    between atoms: _528  and  _531
REMARK  222  A    between atoms: _531  and  _532
REMARK  223  A    between atoms: _532  and  _533
REMARK  224  A    between atoms: _538  and  _540
REMARK  225  A    between atoms: _540  and  _541
REMARK  226  A    between atoms: _543  and  _545
REMARK  227  A    between atoms: _545  and  _546
REMARK  228  A    between atoms: _545  and  _548
REMARK  229  A    between atoms: _548  and  _549
REMARK  230  A    between atoms: _552  and  _554
REMARK  231  A    between atoms: _554  and  _555
REMARK  232  A    between atoms: _557  and  _559
REMARK  233  A    between atoms: _559  and  _560
REMARK  234  A    between atoms: _559  and  _562
REMARK  235  A    between atoms: _562  and  _563
REMARK  236  A    between atoms: _566  and  _568
REMARK  237  A    between atoms: _568  and  _569
REMARK  238  A    between atoms: _568  and  _571
REMARK  239  A    between atoms: _571  and  _572
REMARK  240  A    between atoms: _577  and  _579
REMARK  241  A    between atoms: _579  and  _580
REMARK  242  A    between atoms: _579  and  _582
REMARK  243  A    between atoms: _582  and  _583
REMARK  244  A    between atoms: _586  and  _588
REMARK  245  A    between atoms: _588  and  _589
REMARK  246  A    between atoms: _591  and  _593
REMARK  247  A    between atoms: _593  and  _594
REMARK  248  A    between atoms: _593  and  _596
REMARK  249  A    between atoms: _596  and  _597
REMARK  250  A    between atoms: _600  and  _602
REMARK  251  A    between atoms: _602  and  _603
REMARK  252  A    between atoms: _602  and  _605
REMARK                            x       y       z     vdW  Elec       q    Type
REMARK                         _______ _______ _______ _____ _____    ______ ____
ROOT
ATOM      1  O   HOH     1      10.576  26.986  13.654  0.00  0.00    +0.000 OA
ENDROOT
TORSDOF 0
REMARK  Name = ../refined-set-2016/3uri/3uri_pocket.pdb
REMARK  252 active torsions:
REMARK  status: ('A' for Active; 'I' for Inactive)
REMARK    1  A    between atoms: _1  and  _3
REMARK    2  A    between atoms: _3  and  _4
REMARK    3  A    between atoms: _3  and  _6
REMARK    4  A    between atoms: _6  and  _7
REMARK    5  A    between atoms: _10  and  _12
REMARK    6  A    between atoms: _12  and  _13
REMARK    7  A    between atoms: _12  and  _15
REMARK    8  A    between atoms: _15  and  _16
REMARK    9  A    between atoms: _19  and  _21
REMARK   10  A    between atoms: _21  and  _22
REMARK   11  A    between atoms: _21  and  _24
REMARK   12  A    between atoms: _24  and  _25
REMARK   13  A    between atoms: _28  and  _30
REMARK   14  A    between atoms: _30  and  _31
REMARK   15  A    between atoms: _30  and  _33
REMARK   16  A    between atoms: _33  and  _34
REMARK   17  A    between atoms: _37  and  _39
REMARK   18  A    between atoms: _39  and  _40
REMARK   19  A    between atoms: _39  and  _42
REMARK   20  A    between atoms: _42  and  _43
REMARK   21  A    between atoms: _46  and  _48
REMARK   22  A    between atoms: _48  and  _49
REMARK   23  A    between atoms: _52  and  _54
REMARK   24  A    between atoms: _54  and  _55
REMARK   25  A    between atoms: _54  and  _57
REMARK   26  A    between atoms: _57  and  _58
REMARK   27  A    between atoms: _63  and  _64
REMARK   28  A    between atoms: _66  and  _68
REMARK   29  A    between atoms: _68  and  _69
REMARK   30  A    between atoms: _68  and  _71
REMARK   31  A    between atoms: _71  and  _72
REMARK   32  A    between atoms: _75  and  _77
REMARK   33  A    between atoms: _77  and  _78
REMARK   34  A    between atoms: _77  and  _80
REMARK   35  A    between atoms: _80  and  _81
REMARK   36  A    between atoms: _84  and  _86
REMARK   37  A    between atoms: _86  and  _87
REMARK   38  A    between atoms: _86  and  _89
REMARK   39  A    between atoms: _89  and  _90
REMARK   40  A    between atoms: _96  and  _98
REMARK   41  A    between atoms: _98  and  _99
REMARK   42  A    between atoms: _98  and  _101
REMARK   43  A    between atoms: _101  and  _102
REMARK   44  A    between atoms: _105  and  _107
REMARK   45  A    between atoms: _107  and  _108
REMARK   46  A    between atoms: _107  and  _110
REMARK   47  A    between atoms: _110  and  _111
REMARK   48  A    between atoms: _114  and  _116
REMARK   49  A    between atoms: _116  and  _117
REMARK   50  A    between atoms: _119  and  _121
REMARK   51  A    between atoms: _121  and  _122
REMARK   52  A    between atoms: _121  and  _124
REMARK   53  A    between atoms: _124  and  _125
REMARK   54  A    between atoms: _127  and  _129
REMARK   55  A    between atoms: _129  and  _130
REMARK   56  A    between atoms: _129  and  _132
REMARK   57  A    between atoms: _132  and  _133
REMARK   58  A    between atoms: _135  and  _137
REMARK   59  A    between atoms: _137  and  _138
REMARK   60  A    between atoms: _137  and  _140
REMARK   61  A    between atoms: _140  and  _141
REMARK   62  A    between atoms: _144  and  _146
REMARK   63  A    between atoms: _146  and  _147
REMARK   64  A    between atoms: _146  and  _149
REMARK   65  A    between atoms: _149  and  _150
REMARK   66  A    between atoms: _160  and  _162
REMARK   67  A    between atoms: _162  and  _163
REMARK   68  A    between atoms: _162  and  _165
REMARK   69  A    between atoms: _165  and  _166
REMARK   70  A    between atoms: _168  and  _170
REMARK   71  A    between atoms: _170  and  _171
REMARK   72  A    between atoms: _170  and  _173
REMARK   73  A    between atoms: _173  and  _174
REMARK   74  A    between atoms: _177  and  _179
REMARK   75  A    between atoms: _179  and  _180
REMARK   76  A    between atoms: _179  and  _182
REMARK   77  A    between atoms: _182  and  _183
REMARK   78  A    between atoms: _185  and  _187
REMARK   79  A    between atoms: _187  and  _188
REMARK   80  A    between atoms: _187  and  _190
REMARK   81  A    between atoms: _190  and  _191
REMARK   82  A    between atoms: _196  and  _197
REMARK   83  A    between atoms: _199  and  _201
REMARK   84  A    between atoms: _201  and  _202
REMARK   85  A    between atoms: _204  and  _206
REMARK   86  A    between atoms: _206  and  _207
REMARK   87  A    between atoms: _206  and  _209
REMARK   88  A    between atoms: _209  and  _210
REMARK   89  A    between atoms: _213  and  _215
REMARK   90  A    between atoms: _215  and  _216
REMARK   91  A    between atoms: _218  and  _220
REMARK   92  A    between atoms: _220  and  _221
REMARK   93  A    between atoms: _220  and  _223
REMARK   94  A    between atoms: _223  and  _224
REMARK   95  A    between atoms: _226  and  _228
REMARK   96  A    between atoms: _228  and  _229
REMARK   97  A    between atoms: _228  and  _231
REMARK   98  A    between atoms: _231  and  _232
REMARK   99  A    between atoms: _234  and  _236
REMARK  100  A    between atoms: _236  and  _237
REMARK  101  A    between atoms: _236  and  _239
REMARK  102  A    between atoms: _239  and  _240
REMARK  103  A    between atoms: _242  and  _244
REMARK  104  A    between atoms: _244  and  _245
REMARK  105  A    between atoms: _244  and  _247
REMARK  106  A    between atoms: _247  and  _248
REMARK  107  A    between atoms: _250  and  _252
REMARK  108  A    between atoms: _252  and  _253
REMARK  109  A    between atoms: _252  and  _255
REMARK  110  A    between atoms: _255  and  _256
REMARK  111  A    between atoms: _262  and  _264
REMARK  112  A    between atoms: _264  and  _265
REMARK  113  A    between atoms: _264  and  _267
REMARK  114  A    between atoms: _267  and  _268
REMARK  115  A    between atoms: _268  and  _269
REMARK  116  A    between atoms: _272  and  _274
REMARK  117  A    between atoms: _274  and  _275
REMARK  118  A    between atoms: _274  and  _277
REMARK  119  A    between atoms: _277  and  _278
REMARK  120  A    between atoms: _281  and  _283
REMARK  121  A    between atoms: _283  and  _284
REMARK  122  A    between atoms: _283  and  _286
REMARK  123  A    between atoms: _286  and  _287
REMARK  124  A    between atoms: _290  and  _292
REMARK  125  A    between atoms: _292  and  _293
REMARK  126  A    between atoms: _292  and  _295
REMARK  127  A    between atoms: _295  and  _296
REMARK  128  A    between atoms: _299  and  _301
REMARK  129  A    between atoms: _301  and  _302
REMARK  130  A    between atoms: _304  and  _306
REMARK  131  A    between atoms: _306  and  _307
REMARK  132  A    between atoms: _306  and  _309
REMARK  133  A    between atoms: _309  and  _310
REMARK  134  A    between atoms: _313  and  _315
REMARK  135  A    between atoms: _315  and  _316
REMARK  136  A    between atoms: _315  and  _318
REMARK  137  A    between atoms: _318  and  _319
REMARK  138  A    between atoms: _322  and  _324
REMARK  139  A    between atoms: _324  and  _325
REMARK  140  A    between atoms: _328  and  _330
REMARK  141  A    between atoms: _330  and  _331
REMARK  142  A    between atoms: _330  and  _333
REMARK  143  A    between atoms: _333  and  _334
REMARK  144  A    between atoms: _337  and  _339
REMARK  145  A    between atoms: _339  and  _340
REMARK  146  A    between atoms: _339  and  _342
REMARK  147  A    between atoms: _342  and  _343
REMARK  148  A    between atoms: _348  and  _350
REMARK  149  A    between atoms: _350  and  _351
REMARK  150  A    between atoms: _350  and  _353
REMARK  151  A    between atoms: _353  and  _354
REMARK  152  A    between atoms: _357  and  _359
REMARK  153  A    between atoms: _359  and  _360
REMARK  154  A    between atoms: _359  and  _362
REMARK  155  A    between atoms: _362  and  _363
REMARK  156  A    between atoms: _363  and  _364
REMARK  157  A    between atoms: _369  and  _371
REMARK  158  A    between atoms: _371  and  _372
REMARK  159  A    between atoms: _374  and  _376
REMARK  160  A    between atoms: _376  and  _377
REMARK  161  A    between atoms: _376  and  _379
REMARK  162  A    between atoms: _379  and  _380
REMARK  163  A    between atoms: _386  and  _388
REMARK  164  A    between atoms: _388  and  _389
REMARK  165  A    between atoms: _388  and  _391
REMARK  166  A    between atoms: _391  and  _392
REMARK  167  A    between atoms: _395  and  _397
REMARK  168  A    between atoms: _397  and  _398
REMARK  169  A    between atoms: _401  and  _403
REMARK  170  A    between atoms: _403  and  _404
REMARK  171  A    between atoms: _403  and  _406
REMARK  172  A    between atoms: _406  and  _407
REMARK  173  A    between atoms: _410  and  _412
REMARK  174  A    between atoms: _412  and  _413
REMARK  175  A    between atoms: _412  and  _415
REMARK  176  A    between atoms: _415  and  _416
REMARK  177  A    between atoms: _419  and  _421
REMARK  178  A    between atoms: _421  and  _422
REMARK  179  A    between atoms: _424  and  _426
REMARK  180  A    between atoms: _426  and  _427
REMARK  181  A    between atoms: _426  and  _429
REMARK  182  A    between atoms: _429  and  _430
REMARK  183  A    between atoms: _433  and  _435
REMARK  184  A    between atoms: _435  and  _436
REMARK  185  A    between atoms: _435  and  _438
REMARK  186  A    between atoms: _438  and  _439
REMARK  187  A    between atoms: _442  and  _444
REMARK  188  A    between atoms: _444  and  _445
REMARK  189  A    between atoms: _444  and  _447
REMARK  190  A    between atoms: _447  and  _448
REMARK  191  A    between atoms: _451  and  _453
REMARK  192  A    between atoms: _453  and  _454
REMARK  193  A    between atoms: _453  and  _456
REMARK  194  A    between atoms: _456  and  _457
REMARK  195  A    between atoms: _460  and  _462
REMARK  196  A    between atoms: _462  and  _463
REMARK  197  A    between atoms: _462  and  _465
REMARK  198  A    between atoms: _465  and  _466
REMARK  199  A    between atoms: _471  and  _472
REMARK  200  A    between atoms: _474  and  _476
REMARK  201  A    between atoms: _476  and  _477
REMARK  202  A    between atoms: _476  and  _479
REMARK  203  A    between atoms: _482  and  _484
REMARK  204  A    between atoms: _484  and  _485
REMARK  205  A    between atoms: _487  and  _489
REMARK  206  A    between atoms: _489  and  _490
REMARK  207  A    between atoms: _489  and  _492
REMARK  208  A    between atoms: _492  and  _493
REMARK  209  A    between atoms: _499  and  _501
REMARK  210  A    between atoms: _501  and  _502
REMARK  211  A    between atoms: _504  and  _506
REMARK  212  A    between atoms: _506  and  _507
REMARK  213  A    between atoms: _506  and  _509
REMARK  214  A    between atoms: _509  and  _510
REMARK  215  A    between atoms: _516  and  _518
REMARK  216  A    between atoms: _518  and  _519
REMARK  217  A    between atoms: _521  and  _523
REMARK  218  A    between atoms: _523  and  _524
REMARK  219  A    between atoms: _526  and  _528
REMARK  220  A    between atoms: _528  and  _529
REMARK  221  A    between atoms: _528  and  _531
REMARK  222  A    between atoms: _531  and  _532
REMARK  223  A    between atoms: _532  and  _533
REMARK  224  A    between atoms: _538  and  _540
REMARK  225  A    between atoms: _540  and  _541
REMARK  226  A    between atoms: _543  and  _545
REMARK  227  A    between atoms: _545  and  _546
REMARK  228  A    between atoms: _545  and  _548
REMARK  229  A    between atoms: _548  and  _549
REMARK  230  A    between atoms: _552  and  _554
REMARK  231  A    between atoms: _554  and  _555
REMARK  232  A    between atoms: _557  and  _559
REMARK  233  A    between atoms: _559  and  _560
REMARK  234  A    between atoms: _559  and  _562
REMARK  235  A    between atoms: _562  and  _563
REMARK  236  A    between atoms: _566  and  _568
REMARK  237  A    between atoms: _568  and  _569
REMARK  238  A    between atoms: _568  and  _571
REMARK  239  A    between atoms: _571  and  _572
REMARK  240  A    between atoms: _577  and  _579
REMARK  241  A    between atoms: _579  and  _580
REMARK  242  A    between atoms: _579  and  _582
REMARK  243  A    between atoms: _582  and  _583
REMARK  244  A    between atoms: _586  and  _588
REMARK  245  A    between atoms: _588  and  _589
REMARK  246  A    between atoms: _591  and  _593
REMARK  247  A    between atoms: _593  and  _594
REMARK  248  A    between atoms: _593  and  _596
REMARK  249  A    between atoms: _596  and  _597
REMARK  250  A    between atoms: _600  and  _602
REMARK  251  A    between atoms: _602  and  _603
REMARK  252  A    between atoms: _602  and  _605
REMARK                            x       y       z     vdW  Elec       q    Type
REMARK                         _______ _______ _______ _____ _____    ______ ____
ROOT
ATOM      1  O   HOH     1       8.705  28.935  15.923  0.00  0.00    +0.000 OA
ENDROOT
TORSDOF 0
REMARK  Name = ../refined-set-2016/3uri/3uri_pocket.pdb
REMARK  252 active torsions:
REMARK  status: ('A' for Active; 'I' for Inactive)
REMARK    1  A    between atoms: _1  and  _3
REMARK    2  A    between atoms: _3  and  _4
REMARK    3  A    between atoms: _3  and  _6
REMARK    4  A    between atoms: _6  and  _7
REMARK    5  A    between atoms: _10  and  _12
REMARK    6  A    between atoms: _12  and  _13
REMARK    7  A    between atoms: _12  and  _15
REMARK    8  A    between atoms: _15  and  _16
REMARK    9  A    between atoms: _19  and  _21
REMARK   10  A    between atoms: _21  and  _22
REMARK   11  A    between atoms: _21  and  _24
REMARK   12  A    between atoms: _24  and  _25
REMARK   13  A    between atoms: _28  and  _30
REMARK   14  A    between atoms: _30  and  _31
REMARK   15  A    between atoms: _30  and  _33
REMARK   16  A    between atoms: _33  and  _34
REMARK   17  A    between atoms: _37  and  _39
REMARK   18  A    between atoms: _39  and  _40
REMARK   19  A    between atoms: _39  and  _42
REMARK   20  A    between atoms: _42  and  _43
REMARK   21  A    between atoms: _46  and  _48
REMARK   22  A    between atoms: _48  and  _49
REMARK   23  A    between atoms: _52  and  _54
REMARK   24  A    between atoms: _54  and  _55
REMARK   25  A    between atoms: _54  and  _57
REMARK   26  A    between atoms: _57  and  _58
REMARK   27  A    between atoms: _63  and  _64
REMARK   28  A    between atoms: _66  and  _68
REMARK   29  A    between atoms: _68  and  _69
REMARK   30  A    between atoms: _68  and  _71
REMARK   31  A    between atoms: _71  and  _72
REMARK   32  A    between atoms: _75  and  _77
REMARK   33  A    between atoms: _77  and  _78
REMARK   34  A    between atoms: _77  and  _80
REMARK   35  A    between atoms: _80  and  _81
REMARK   36  A    between atoms: _84  and  _86
REMARK   37  A    between atoms: _86  and  _87
REMARK   38  A    between atoms: _86  and  _89
REMARK   39  A    between atoms: _89  and  _90
REMARK   40  A    between atoms: _96  and  _98
REMARK   41  A    between atoms: _98  and  _99
REMARK   42  A    between atoms: _98  and  _101
REMARK   43  A    between atoms: _101  and  _102
REMARK   44  A    between atoms: _105  and  _107
REMARK   45  A    between atoms: _107  and  _108
REMARK   46  A    between atoms: _107  and  _110
REMARK   47  A    between atoms: _110  and  _111
REMARK   48  A    between atoms: _114  and  _116
REMARK   49  A    between atoms: _116  and  _117
REMARK   50  A    between atoms: _119  and  _121
REMARK   51  A    between atoms: _121  and  _122
REMARK   52  A    between atoms: _121  and  _124
REMARK   53  A    between atoms: _124  and  _125
REMARK   54  A    between atoms: _127  and  _129
REMARK   55  A    between atoms: _129  and  _130
REMARK   56  A    between atoms: _129  and  _132
REMARK   57  A    between atoms: _132  and  _133
REMARK   58  A    between atoms: _135  and  _137
REMARK   59  A    between atoms: _137  and  _138
REMARK   60  A    between atoms: _137  and  _140
REMARK   61  A    between atoms: _140  and  _141
REMARK   62  A    between atoms: _144  and  _146
REMARK   63  A    between atoms: _146  and  _147
REMARK   64  A    between atoms: _146  and  _149
REMARK   65  A    between atoms: _149  and  _150
REMARK   66  A    between atoms: _160  and  _162
REMARK   67  A    between atoms: _162  and  _163
REMARK   68  A    between atoms: _162  and  _165
REMARK   69  A    between atoms: _165  and  _166
REMARK   70  A    between atoms: _168  and  _170
REMARK   71  A    between atoms: _170  and  _171
REMARK   72  A    between atoms: _170  and  _173
REMARK   73  A    between atoms: _173  and  _174
REMARK   74  A    between atoms: _177  and  _179
REMARK   75  A    between atoms: _179  and  _180
REMARK   76  A    between atoms: _179  and  _182
REMARK   77  A    between atoms: _182  and  _183
REMARK   78  A    between atoms: _185  and  _187
REMARK   79  A    between atoms: _187  and  _188
REMARK   80  A    between atoms: _187  and  _190
REMARK   81  A    between atoms: _190  and  _191
REMARK   82  A    between atoms: _196  and  _197
REMARK   83  A    between atoms: _199  and  _201
REMARK   84  A    between atoms: _201  and  _202
REMARK   85  A    between atoms: _204  and  _206
REMARK   86  A    between atoms: _206  and  _207
REMARK   87  A    between atoms: _206  and  _209
REMARK   88  A    between atoms: _209  and  _210
REMARK   89  A    between atoms: _213  and  _215
REMARK   90  A    between atoms: _215  and  _216
REMARK   91  A    between atoms: _218  and  _220
REMARK   92  A    between atoms: _220  and  _221
REMARK   93  A    between atoms: _220  and  _223
REMARK   94  A    between atoms: _223  and  _224
REMARK   95  A    between atoms: _226  and  _228
REMARK   96  A    between atoms: _228  and  _229
REMARK   97  A    between atoms: _228  and  _231
REMARK   98  A    between atoms: _231  and  _232
REMARK   99  A    between atoms: _234  and  _236
REMARK  100  A    between atoms: _236  and  _237
REMARK  101  A    between atoms: _236  and  _239
REMARK  102  A    between atoms: _239  and  _240
REMARK  103  A    between atoms: _242  and  _244
REMARK  104  A    between atoms: _244  and  _245
REMARK  105  A    between atoms: _244  and  _247
REMARK  106  A    between atoms: _247  and  _248
REMARK  107  A    between atoms: _250  and  _252
REMARK  108  A    between atoms: _252  and  _253
REMARK  109  A    between atoms: _252  and  _255
REMARK  110  A    between atoms: _255  and  _256
REMARK  111  A    between atoms: _262  and  _264
REMARK  112  A    between atoms: _264  and  _265
REMARK  113  A    between atoms: _264  and  _267
REMARK  114  A    between atoms: _267  and  _268
REMARK  115  A    between atoms: _268  and  _269
REMARK  116  A    between atoms: _272  and  _274
REMARK  117  A    between atoms: _274  and  _275
REMARK  118  A    between atoms: _274  and  _277
REMARK  119  A    between atoms: _277  and  _278
REMARK  120  A    between atoms: _281  and  _283
REMARK  121  A    between atoms: _283  and  _284
REMARK  122  A    between atoms: _283  and  _286
REMARK  123  A    between atoms: _286  and  _287
REMARK  124  A    between atoms: _290  and  _292
REMARK  125  A    between atoms: _292  and  _293
REMARK  126  A    between atoms: _292  and  _295
REMARK  127  A    between atoms: _295  and  _296
REMARK  128  A    between atoms: _299  and  _301
REMARK  129  A    between atoms: _301  and  _302
REMARK  130  A    between atoms: _304  and  _306
REMARK  131  A    between atoms: _306  and  _307
REMARK  132  A    between atoms: _306  and  _309
REMARK  133  A    between atoms: _309  and  _310
REMARK  134  A    between atoms: _313  and  _315
REMARK  135  A    between atoms: _315  and  _316
REMARK  136  A    between atoms: _315  and  _318
REMARK  137  A    between atoms: _318  and  _319
REMARK  138  A    between atoms: _322  and  _324
REMARK  139  A    between atoms: _324  and  _325
REMARK  140  A    between atoms: _328  and  _330
REMARK  141  A    between atoms: _330  and  _331
REMARK  142  A    between atoms: _330  and  _333
REMARK  143  A    between atoms: _333  and  _334
REMARK  144  A    between atoms: _337  and  _339
REMARK  145  A    between atoms: _339  and  _340
REMARK  146  A    between atoms: _339  and  _342
REMARK  147  A    between atoms: _342  and  _343
REMARK  148  A    between atoms: _348  and  _350
REMARK  149  A    between atoms: _350  and  _351
REMARK  150  A    between atoms: _350  and  _353
REMARK  151  A    between atoms: _353  and  _354
REMARK  152  A    between atoms: _357  and  _359
REMARK  153  A    between atoms: _359  and  _360
REMARK  154  A    between atoms: _359  and  _362
REMARK  155  A    between atoms: _362  and  _363
REMARK  156  A    between atoms: _363  and  _364
REMARK  157  A    between atoms: _369  and  _371
REMARK  158  A    between atoms: _371  and  _372
REMARK  159  A    between atoms: _374  and  _376
REMARK  160  A    between atoms: _376  and  _377
REMARK  161  A    between atoms: _376  and  _379
REMARK  162  A    between atoms: _379  and  _380
REMARK  163  A    between atoms: _386  and  _388
REMARK  164  A    between atoms: _388  and  _389
REMARK  165  A    between atoms: _388  and  _391
REMARK  166  A    between atoms: _391  and  _392
REMARK  167  A    between atoms: _395  and  _397
REMARK  168  A    between atoms: _397  and  _398
REMARK  169  A    between atoms: _401  and  _403
REMARK  170  A    between atoms: _403  and  _404
REMARK  171  A    between atoms: _403  and  _406
REMARK  172  A    between atoms: _406  and  _407
REMARK  173  A    between atoms: _410  and  _412
REMARK  174  A    between atoms: _412  and  _413
REMARK  175  A    between atoms: _412  and  _415
REMARK  176  A    between atoms: _415  and  _416
REMARK  177  A    between atoms: _419  and  _421
REMARK  178  A    between atoms: _421  and  _422
REMARK  179  A    between atoms: _424  and  _426
REMARK  180  A    between atoms: _426  and  _427
REMARK  181  A    between atoms: _426  and  _429
REMARK  182  A    between atoms: _429  and  _430
REMARK  183  A    between atoms: _433  and  _435
REMARK  184  A    between atoms: _435  and  _436
REMARK  185  A    between atoms: _435  and  _438
REMARK  186  A    between atoms: _438  and  _439
REMARK  187  A    between atoms: _442  and  _444
REMARK  188  A    between atoms: _444  and  _445
REMARK  189  A    between atoms: _444  and  _447
REMARK  190  A    between atoms: _447  and  _448
REMARK  191  A    between atoms: _451  and  _453
REMARK  192  A    between atoms: _453  and  _454
REMARK  193  A    between atoms: _453  and  _456
REMARK  194  A    between atoms: _456  and  _457
REMARK  195  A    between atoms: _460  and  _462
REMARK  196  A    between atoms: _462  and  _463
REMARK  197  A    between atoms: _462  and  _465
REMARK  198  A    between atoms: _465  and  _466
REMARK  199  A    between atoms: _471  and  _472
REMARK  200  A    between atoms: _474  and  _476
REMARK  201  A    between atoms: _476  and  _477
REMARK  202  A    between atoms: _476  and  _479
REMARK  203  A    between atoms: _482  and  _484
REMARK  204  A    between atoms: _484  and  _485
REMARK  205  A    between atoms: _487  and  _489
REMARK  206  A    between atoms: _489  and  _490
REMARK  207  A    between atoms: _489  and  _492
REMARK  208  A    between atoms: _492  and  _493
REMARK  209  A    between atoms: _499  and  _501
REMARK  210  A    between atoms: _501  and  _502
REMARK  211  A    between atoms: _504  and  _506
REMARK  212  A    between atoms: _506  and  _507
REMARK  213  A    between atoms: _506  and  _509
REMARK  214  A    between atoms: _509  and  _510
REMARK  215  A    between atoms: _516  and  _518
REMARK  216  A    between atoms: _518  and  _519
REMARK  217  A    between atoms: _521  and  _523
REMARK  218  A    between atoms: _523  and  _524
REMARK  219  A    between atoms: _526  and  _528
REMARK  220  A    between atoms: _528  and  _529
REMARK  221  A    between atoms: _528  and  _531
REMARK  222  A    between atoms: _531  and  _532
REMARK  223  A    between atoms: _532  and  _533
REMARK  224  A    between atoms: _538  and  _540
REMARK  225  A    between atoms: _540  and  _541
REMARK  226  A    between atoms: _543  and  _545
REMARK  227  A    between atoms: _545  and  _546
REMARK  228  A    between atoms: _545  and  _548
REMARK  229  A    between atoms: _548  and  _549
REMARK  230  A    between atoms: _552  and  _554
REMARK  231  A    between atoms: _554  and  _555
REMARK  232  A    between atoms: _557  and  _559
REMARK  233  A    between atoms: _559  and  _560
REMARK  234  A    between atoms: _559  and  _562
REMARK  235  A    between atoms: _562  and  _563
REMARK  236  A    between atoms: _566  and  _568
REMARK  237  A    between atoms: _568  and  _569
REMARK  238  A    between atoms: _568  and  _571
REMARK  239  A    between atoms: _571  and  _572
REMARK  240  A    between atoms: _577  and  _579
REMARK  241  A    between atoms: _579  and  _580
REMARK  242  A    between atoms: _579  and  _582
REMARK  243  A    between atoms: _582  and  _583
REMARK  244  A    between atoms: _586  and  _588
REMARK  245  A    between atoms: _588  and  _589
REMARK  246  A    between atoms: _591  and  _593
REMARK  247  A    between atoms: _593  and  _594
REMARK  248  A    between atoms: _593  and  _596
REMARK  249  A    between atoms: _596  and  _597
REMARK  250  A    between atoms: _600  and  _602
REMARK  251  A    between atoms: _602  and  _603
REMARK  252  A    between atoms: _602  and  _605
REMARK                            x       y       z     vdW  Elec       q    Type
REMARK                         _______ _______ _______ _____ _____    ______ ____
ROOT
ATOM      1  O   HOH     1       7.501  26.660  15.266  0.00  0.00    +0.000 OA
ENDROOT
TORSDOF 0
REMARK  Name = ../refined-set-2016/3uri/3uri_pocket.pdb
REMARK  252 active torsions:
REMARK  status: ('A' for Active; 'I' for Inactive)
REMARK    1  A    between atoms: _1  and  _3
REMARK    2  A    between atoms: _3  and  _4
REMARK    3  A    between atoms: _3  and  _6
REMARK    4  A    between atoms: _6  and  _7
REMARK    5  A    between atoms: _10  and  _12
REMARK    6  A    between atoms: _12  and  _13
REMARK    7  A    between atoms: _12  and  _15
REMARK    8  A    between atoms: _15  and  _16
REMARK    9  A    between atoms: _19  and  _21
REMARK   10  A    between atoms: _21  and  _22
REMARK   11  A    between atoms: _21  and  _24
REMARK   12  A    between atoms: _24  and  _25
REMARK   13  A    between atoms: _28  and  _30
REMARK   14  A    between atoms: _30  and  _31
REMARK   15  A    between atoms: _30  and  _33
REMARK   16  A    between atoms: _33  and  _34
REMARK   17  A    between atoms: _37  and  _39
REMARK   18  A    between atoms: _39  and  _40
REMARK   19  A    between atoms: _39  and  _42
REMARK   20  A    between atoms: _42  and  _43
REMARK   21  A    between atoms: _46  and  _48
REMARK   22  A    between atoms: _48  and  _49
REMARK   23  A    between atoms: _52  and  _54
REMARK   24  A    between atoms: _54  and  _55
REMARK   25  A    between atoms: _54  and  _57
REMARK   26  A    between atoms: _57  and  _58
REMARK   27  A    between atoms: _63  and  _64
REMARK   28  A    between atoms: _66  and  _68
REMARK   29  A    between atoms: _68  and  _69
REMARK   30  A    between atoms: _68  and  _71
REMARK   31  A    between atoms: _71  and  _72
REMARK   32  A    between atoms: _75  and  _77
REMARK   33  A    between atoms: _77  and  _78
REMARK   34  A    between atoms: _77  and  _80
REMARK   35  A    between atoms: _80  and  _81
REMARK   36  A    between atoms: _84  and  _86
REMARK   37  A    between atoms: _86  and  _87
REMARK   38  A    between atoms: _86  and  _89
REMARK   39  A    between atoms: _89  and  _90
REMARK   40  A    between atoms: _96  and  _98
REMARK   41  A    between atoms: _98  and  _99
REMARK   42  A    between atoms: _98  and  _101
REMARK   43  A    between atoms: _101  and  _102
REMARK   44  A    between atoms: _105  and  _107
REMARK   45  A    between atoms: _107  and  _108
REMARK   46  A    between atoms: _107  and  _110
REMARK   47  A    between atoms: _110  and  _111
REMARK   48  A    between atoms: _114  and  _116
REMARK   49  A    between atoms: _116  and  _117
REMARK   50  A    between atoms: _119  and  _121
REMARK   51  A    between atoms: _121  and  _122
REMARK   52  A    between atoms: _121  and  _124
REMARK   53  A    between atoms: _124  and  _125
REMARK   54  A    between atoms: _127  and  _129
REMARK   55  A    between atoms: _129  and  _130
REMARK   56  A    between atoms: _129  and  _132
REMARK   57  A    between atoms: _132  and  _133
REMARK   58  A    between atoms: _135  and  _137
REMARK   59  A    between atoms: _137  and  _138
REMARK   60  A    between atoms: _137  and  _140
REMARK   61  A    between atoms: _140  and  _141
REMARK   62  A    between atoms: _144  and  _146
REMARK   63  A    between atoms: _146  and  _147
REMARK   64  A    between atoms: _146  and  _149
REMARK   65  A    between atoms: _149  and  _150
REMARK   66  A    between atoms: _160  and  _162
REMARK   67  A    between atoms: _162  and  _163
REMARK   68  A    between atoms: _162  and  _165
REMARK   69  A    between atoms: _165  and  _166
REMARK   70  A    between atoms: _168  and  _170
REMARK   71  A    between atoms: _170  and  _171
REMARK   72  A    between atoms: _170  and  _173
REMARK   73  A    between atoms: _173  and  _174
REMARK   74  A    between atoms: _177  and  _179
REMARK   75  A    between atoms: _179  and  _180
REMARK   76  A    between atoms: _179  and  _182
REMARK   77  A    between atoms: _182  and  _183
REMARK   78  A    between atoms: _185  and  _187
REMARK   79  A    between atoms: _187  and  _188
REMARK   80  A    between atoms: _187  and  _190
REMARK   81  A    between atoms: _190  and  _191
REMARK   82  A    between atoms: _196  and  _197
REMARK   83  A    between atoms: _199  and  _201
REMARK   84  A    between atoms: _201  and  _202
REMARK   85  A    between atoms: _204  and  _206
REMARK   86  A    between atoms: _206  and  _207
REMARK   87  A    between atoms: _206  and  _209
REMARK   88  A    between atoms: _209  and  _210
REMARK   89  A    between atoms: _213  and  _215
REMARK   90  A    between atoms: _215  and  _216
REMARK   91  A    between atoms: _218  and  _220
REMARK   92  A    between atoms: _220  and  _221
REMARK   93  A    between atoms: _220  and  _223
REMARK   94  A    between atoms: _223  and  _224
REMARK   95  A    between atoms: _226  and  _228
REMARK   96  A    between atoms: _228  and  _229
REMARK   97  A    between atoms: _228  and  _231
REMARK   98  A    between atoms: _231  and  _232
REMARK   99  A    between atoms: _234  and  _236
REMARK  100  A    between atoms: _236  and  _237
REMARK  101  A    between atoms: _236  and  _239
REMARK  102  A    between atoms: _239  and  _240
REMARK  103  A    between atoms: _242  and  _244
REMARK  104  A    between atoms: _244  and  _245
REMARK  105  A    between atoms: _244  and  _247
REMARK  106  A    between atoms: _247  and  _248
REMARK  107  A    between atoms: _250  and  _252
REMARK  108  A    between atoms: _252  and  _253
REMARK  109  A    between atoms: _252  and  _255
REMARK  110  A    between atoms: _255  and  _256
REMARK  111  A    between atoms: _262  and  _264
REMARK  112  A    between atoms: _264  and  _265
REMARK  113  A    between atoms: _264  and  _267
REMARK  114  A    between atoms: _267  and  _268
REMARK  115  A    between atoms: _268  and  _269
REMARK  116  A    between atoms: _272  and  _274
REMARK  117  A    between atoms: _274  and  _275
REMARK  118  A    between atoms: _274  and  _277
REMARK  119  A    between atoms: _277  and  _278
REMARK  120  A    between atoms: _281  and  _283
REMARK  121  A    between atoms: _283  and  _284
REMARK  122  A    between atoms: _283  and  _286
REMARK  123  A    between atoms: _286  and  _287
REMARK  124  A    between atoms: _290  and  _292
REMARK  125  A    between atoms: _292  and  _293
REMARK  126  A    between atoms: _292  and  _295
REMARK  127  A    between atoms: _295  and  _296
REMARK  128  A    between atoms: _299  and  _301
REMARK  129  A    between atoms: _301  and  _302
REMARK  130  A    between atoms: _304  and  _306
REMARK  131  A    between atoms: _306  and  _307
REMARK  132  A    between atoms: _306  and  _309
REMARK  133  A    between atoms: _309  and  _310
REMARK  134  A    between atoms: _313  and  _315
REMARK  135  A    between atoms: _315  and  _316
REMARK  136  A    between atoms: _315  and  _318
REMARK  137  A    between atoms: _318  and  _319
REMARK  138  A    between atoms: _322  and  _324
REMARK  139  A    between atoms: _324  and  _325
REMARK  140  A    between atoms: _328  and  _330
REMARK  141  A    between atoms: _330  and  _331
REMARK  142  A    between atoms: _330  and  _333
REMARK  143  A    between atoms: _333  and  _334
REMARK  144  A    between atoms: _337  and  _339
REMARK  145  A    between atoms: _339  and  _340
REMARK  146  A    between atoms: _339  and  _342
REMARK  147  A    between atoms: _342  and  _343
REMARK  148  A    between atoms: _348  and  _350
REMARK  149  A    between atoms: _350  and  _351
REMARK  150  A    between atoms: _350  and  _353
REMARK  151  A    between atoms: _353  and  _354
REMARK  152  A    between atoms: _357  and  _359
REMARK  153  A    between atoms: _359  and  _360
REMARK  154  A    between atoms: _359  and  _362
REMARK  155  A    between atoms: _362  and  _363
REMARK  156  A    between atoms: _363  and  _364
REMARK  157  A    between atoms: _369  and  _371
REMARK  158  A    between atoms: _371  and  _372
REMARK  159  A    between atoms: _374  and  _376
REMARK  160  A    between atoms: _376  and  _377
REMARK  161  A    between atoms: _376  and  _379
REMARK  162  A    between atoms: _379  and  _380
REMARK  163  A    between atoms: _386  and  _388
REMARK  164  A    between atoms: _388  and  _389
REMARK  165  A    between atoms: _388  and  _391
REMARK  166  A    between atoms: _391  and  _392
REMARK  167  A    between atoms: _395  and  _397
REMARK  168  A    between atoms: _397  and  _398
REMARK  169  A    between atoms: _401  and  _403
REMARK  170  A    between atoms: _403  and  _404
REMARK  171  A    between atoms: _403  and  _406
REMARK  172  A    between atoms: _406  and  _407
REMARK  173  A    between atoms: _410  and  _412
REMARK  174  A    between atoms: _412  and  _413
REMARK  175  A    between atoms: _412  and  _415
REMARK  176  A    between atoms: _415  and  _416
REMARK  177  A    between atoms: _419  and  _421
REMARK  178  A    between atoms: _421  and  _422
REMARK  179  A    between atoms: _424  and  _426
REMARK  180  A    between atoms: _426  and  _427
REMARK  181  A    between atoms: _426  and  _429
REMARK  182  A    between atoms: _429  and  _430
REMARK  183  A    between atoms: _433  and  _435
REMARK  184  A    between atoms: _435  and  _436
REMARK  185  A    between atoms: _435  and  _438
REMARK  186  A    between atoms: _438  and  _439
REMARK  187  A    between atoms: _442  and  _444
REMARK  188  A    between atoms: _444  and  _445
REMARK  189  A    between atoms: _444  and  _447
REMARK  190  A    between atoms: _447  and  _448
REMARK  191  A    between atoms: _451  and  _453
REMARK  192  A    between atoms: _453  and  _454
REMARK  193  A    between atoms: _453  and  _456
REMARK  194  A    between atoms: _456  and  _457
REMARK  195  A    between atoms: _460  and  _462
REMARK  196  A    between atoms: _462  and  _463
REMARK  197  A    between atoms: _462  and  _465
REMARK  198  A    between atoms: _465  and  _466
REMARK  199  A    between atoms: _471  and  _472
REMARK  200  A    between atoms: _474  and  _476
REMARK  201  A    between atoms: _476  and  _477
REMARK  202  A    between atoms: _476  and  _479
REMARK  203  A    between atoms: _482  and  _484
REMARK  204  A    between atoms: _484  and  _485
REMARK  205  A    between atoms: _487  and  _489
REMARK  206  A    between atoms: _489  and  _490
REMARK  207  A    between atoms: _489  and  _492
REMARK  208  A    between atoms: _492  and  _493
REMARK  209  A    between atoms: _499  and  _501
REMARK  210  A    between atoms: _501  and  _502
REMARK  211  A    between atoms: _504  and  _506
REMARK  212  A    between atoms: _506  and  _507
REMARK  213  A    between atoms: _506  and  _509
REMARK  214  A    between atoms: _509  and  _510
REMARK  215  A    between atoms: _516  and  _518
REMARK  216  A    between atoms: _518  and  _519
REMARK  217  A    between atoms: _521  and  _523
REMARK  218  A    between atoms: _523  and  _524
REMARK  219  A    between atoms: _526  and  _528
REMARK  220  A    between atoms: _528  and  _529
REMARK  221  A    between atoms: _528  and  _531
REMARK  222  A    between atoms: _531  and  _532
REMARK  223  A    between atoms: _532  and  _533
REMARK  224  A    between atoms: _538  and  _540
REMARK  225  A    between atoms: _540  and  _541
REMARK  226  A    between atoms: _543  and  _545
REMARK  227  A    between atoms: _545  and  _546
REMARK  228  A    between atoms: _545  and  _548
REMARK  229  A    between atoms: _548  and  _549
REMARK  230  A    between atoms: _552  and  _554
REMARK  231  A    between atoms: _554  and  _555
REMARK  232  A    between atoms: _557  and  _559
REMARK  233  A    between atoms: _559  and  _560
REMARK  234  A    between atoms: _559  and  _562
REMARK  235  A    between atoms: _562  and  _563
REMARK  236  A    between atoms: _566  and  _568
REMARK  237  A    between atoms: _568  and  _569
REMARK  238  A    between atoms: _568  and  _571
REMARK  239  A    between atoms: _571  and  _572
REMARK  240  A    between atoms: _577  and  _579
REMARK  241  A    between atoms: _579  and  _580
REMARK  242  A    between atoms: _579  and  _582
REMARK  243  A    between atoms: _582  and  _583
REMARK  244  A    between atoms: _586  and  _588
REMARK  245  A    between atoms: _588  and  _589
REMARK  246  A    between atoms: _591  and  _593
REMARK  247  A    between atoms: _593  and  _594
REMARK  248  A    between atoms: _593  and  _596
REMARK  249  A    between atoms: _596  and  _597
REMARK  250  A    between atoms: _600  and  _602
REMARK  251  A    between atoms: _602  and  _603
REMARK  252  A    between atoms: _602  and  _605
REMARK                            x       y       z     vdW  Elec       q    Type
REMARK                         _______ _______ _______ _____ _____    ______ ____
ROOT
ATOM      1  O   HOH     1       8.120  41.490  10.174  0.00  0.00    +0.000 OA
ENDROOT
TORSDOF 0
REMARK  Name = ../refined-set-2016/3uri/3uri_pocket.pdb
REMARK  252 active torsions:
REMARK  status: ('A' for Active; 'I' for Inactive)
REMARK    1  A    between atoms: _1  and  _3
REMARK    2  A    between atoms: _3  and  _4
REMARK    3  A    between atoms: _3  and  _6
REMARK    4  A    between atoms: _6  and  _7
REMARK    5  A    between atoms: _10  and  _12
REMARK    6  A    between atoms: _12  and  _13
REMARK    7  A    between atoms: _12  and  _15
REMARK    8  A    between atoms: _15  and  _16
REMARK    9  A    between atoms: _19  and  _21
REMARK   10  A    between atoms: _21  and  _22
REMARK   11  A    between atoms: _21  and  _24
REMARK   12  A    between atoms: _24  and  _25
REMARK   13  A    between atoms: _28  and  _30
REMARK   14  A    between atoms: _30  and  _31
REMARK   15  A    between atoms: _30  and  _33
REMARK   16  A    between atoms: _33  and  _34
REMARK   17  A    between atoms: _37  and  _39
REMARK   18  A    between atoms: _39  and  _40
REMARK   19  A    between atoms: _39  and  _42
REMARK   20  A    between atoms: _42  and  _43
REMARK   21  A    between atoms: _46  and  _48
REMARK   22  A    between atoms: _48  and  _49
REMARK   23  A    between atoms: _52  and  _54
REMARK   24  A    between atoms: _54  and  _55
REMARK   25  A    between atoms: _54  and  _57
REMARK   26  A    between atoms: _57  and  _58
REMARK   27  A    between atoms: _63  and  _64
REMARK   28  A    between atoms: _66  and  _68
REMARK   29  A    between atoms: _68  and  _69
REMARK   30  A    between atoms: _68  and  _71
REMARK   31  A    between atoms: _71  and  _72
REMARK   32  A    between atoms: _75  and  _77
REMARK   33  A    between atoms: _77  and  _78
REMARK   34  A    between atoms: _77  and  _80
REMARK   35  A    between atoms: _80  and  _81
REMARK   36  A    between atoms: _84  and  _86
REMARK   37  A    between atoms: _86  and  _87
REMARK   38  A    between atoms: _86  and  _89
REMARK   39  A    between atoms: _89  and  _90
REMARK   40  A    between atoms: _96  and  _98
REMARK   41  A    between atoms: _98  and  _99
REMARK   42  A    between atoms: _98  and  _101
REMARK   43  A    between atoms: _101  and  _102
REMARK   44  A    between atoms: _105  and  _107
REMARK   45  A    between atoms: _107  and  _108
REMARK   46  A    between atoms: _107  and  _110
REMARK   47  A    between atoms: _110  and  _111
REMARK   48  A    between atoms: _114  and  _116
REMARK   49  A    between atoms: _116  and  _117
REMARK   50  A    between atoms: _119  and  _121
REMARK   51  A    between atoms: _121  and  _122
REMARK   52  A    between atoms: _121  and  _124
REMARK   53  A    between atoms: _124  and  _125
REMARK   54  A    between atoms: _127  and  _129
REMARK   55  A    between atoms: _129  and  _130
REMARK   56  A    between atoms: _129  and  _132
REMARK   57  A    between atoms: _132  and  _133
REMARK   58  A    between atoms: _135  and  _137
REMARK   59  A    between atoms: _137  and  _138
REMARK   60  A    between atoms: _137  and  _140
REMARK   61  A    between atoms: _140  and  _141
REMARK   62  A    between atoms: _144  and  _146
REMARK   63  A    between atoms: _146  and  _147
REMARK   64  A    between atoms: _146  and  _149
REMARK   65  A    between atoms: _149  and  _150
REMARK   66  A    between atoms: _160  and  _162
REMARK   67  A    between atoms: _162  and  _163
REMARK   68  A    between atoms: _162  and  _165
REMARK   69  A    between atoms: _165  and  _166
REMARK   70  A    between atoms: _168  and  _170
REMARK   71  A    between atoms: _170  and  _171
REMARK   72  A    between atoms: _170  and  _173
REMARK   73  A    between atoms: _173  and  _174
REMARK   74  A    between atoms: _177  and  _179
REMARK   75  A    between atoms: _179  and  _180
REMARK   76  A    between atoms: _179  and  _182
REMARK   77  A    between atoms: _182  and  _183
REMARK   78  A    between atoms: _185  and  _187
REMARK   79  A    between atoms: _187  and  _188
REMARK   80  A    between atoms: _187  and  _190
REMARK   81  A    between atoms: _190  and  _191
REMARK   82  A    between atoms: _196  and  _197
REMARK   83  A    between atoms: _199  and  _201
REMARK   84  A    between atoms: _201  and  _202
REMARK   85  A    between atoms: _204  and  _206
REMARK   86  A    between atoms: _206  and  _207
REMARK   87  A    between atoms: _206  and  _209
REMARK   88  A    between atoms: _209  and  _210
REMARK   89  A    between atoms: _213  and  _215
REMARK   90  A    between atoms: _215  and  _216
REMARK   91  A    between atoms: _218  and  _220
REMARK   92  A    between atoms: _220  and  _221
REMARK   93  A    between atoms: _220  and  _223
REMARK   94  A    between atoms: _223  and  _224
REMARK   95  A    between atoms: _226  and  _228
REMARK   96  A    between atoms: _228  and  _229
REMARK   97  A    between atoms: _228  and  _231
REMARK   98  A    between atoms: _231  and  _232
REMARK   99  A    between atoms: _234  and  _236
REMARK  100  A    between atoms: _236  and  _237
REMARK  101  A    between atoms: _236  and  _239
REMARK  102  A    between atoms: _239  and  _240
REMARK  103  A    between atoms: _242  and  _244
REMARK  104  A    between atoms: _244  and  _245
REMARK  105  A    between atoms: _244  and  _247
REMARK  106  A    between atoms: _247  and  _248
REMARK  107  A    between atoms: _250  and  _252
REMARK  108  A    between atoms: _252  and  _253
REMARK  109  A    between atoms: _252  and  _255
REMARK  110  A    between atoms: _255  and  _256
REMARK  111  A    between atoms: _262  and  _264
REMARK  112  A    between atoms: _264  and  _265
REMARK  113  A    between atoms: _264  and  _267
REMARK  114  A    between atoms: _267  and  _268
REMARK  115  A    between atoms: _268  and  _269
REMARK  116  A    between atoms: _272  and  _274
REMARK  117  A    between atoms: _274  and  _275
REMARK  118  A    between atoms: _274  and  _277
REMARK  119  A    between atoms: _277  and  _278
REMARK  120  A    between atoms: _281  and  _283
REMARK  121  A    between atoms: _283  and  _284
REMARK  122  A    between atoms: _283  and  _286
REMARK  123  A    between atoms: _286  and  _287
REMARK  124  A    between atoms: _290  and  _292
REMARK  125  A    between atoms: _292  and  _293
REMARK  126  A    between atoms: _292  and  _295
REMARK  127  A    between atoms: _295  and  _296
REMARK  128  A    between atoms: _299  and  _301
REMARK  129  A    between atoms: _301  and  _302
REMARK  130  A    between atoms: _304  and  _306
REMARK  131  A    between atoms: _306  and  _307
REMARK  132  A    between atoms: _306  and  _309
REMARK  133  A    between atoms: _309  and  _310
REMARK  134  A    between atoms: _313  and  _315
REMARK  135  A    between atoms: _315  and  _316
REMARK  136  A    between atoms: _315  and  _318
REMARK  137  A    between atoms: _318  and  _319
REMARK  138  A    between atoms: _322  and  _324
REMARK  139  A    between atoms: _324  and  _325
REMARK  140  A    between atoms: _328  and  _330
REMARK  141  A    between atoms: _330  and  _331
REMARK  142  A    between atoms: _330  and  _333
REMARK  143  A    between atoms: _333  and  _334
REMARK  144  A    between atoms: _337  and  _339
REMARK  145  A    between atoms: _339  and  _340
REMARK  146  A    between atoms: _339  and  _342
REMARK  147  A    between atoms: _342  and  _343
REMARK  148  A    between atoms: _348  and  _350
REMARK  149  A    between atoms: _350  and  _351
REMARK  150  A    between atoms: _350  and  _353
REMARK  151  A    between atoms: _353  and  _354
REMARK  152  A    between atoms: _357  and  _359
REMARK  153  A    between atoms: _359  and  _360
REMARK  154  A    between atoms: _359  and  _362
REMARK  155  A    between atoms: _362  and  _363
REMARK  156  A    between atoms: _363  and  _364
REMARK  157  A    between atoms: _369  and  _371
REMARK  158  A    between atoms: _371  and  _372
REMARK  159  A    between atoms: _374  and  _376
REMARK  160  A    between atoms: _376  and  _377
REMARK  161  A    between atoms: _376  and  _379
REMARK  162  A    between atoms: _379  and  _380
REMARK  163  A    between atoms: _386  and  _388
REMARK  164  A    between atoms: _388  and  _389
REMARK  165  A    between atoms: _388  and  _391
REMARK  166  A    between atoms: _391  and  _392
REMARK  167  A    between atoms: _395  and  _397
REMARK  168  A    between atoms: _397  and  _398
REMARK  169  A    between atoms: _401  and  _403
REMARK  170  A    between atoms: _403  and  _404
REMARK  171  A    between atoms: _403  and  _406
REMARK  172  A    between atoms: _406  and  _407
REMARK  173  A    between atoms: _410  and  _412
REMARK  174  A    between atoms: _412  and  _413
REMARK  175  A    between atoms: _412  and  _415
REMARK  176  A    between atoms: _415  and  _416
REMARK  177  A    between atoms: _419  and  _421
REMARK  178  A    between atoms: _421  and  _422
REMARK  179  A    between atoms: _424  and  _426
REMARK  180  A    between atoms: _426  and  _427
REMARK  181  A    between atoms: _426  and  _429
REMARK  182  A    between atoms: _429  and  _430
REMARK  183  A    between atoms: _433  and  _435
REMARK  184  A    between atoms: _435  and  _436
REMARK  185  A    between atoms: _435  and  _438
REMARK  186  A    between atoms: _438  and  _439
REMARK  187  A    between atoms: _442  and  _444
REMARK  188  A    between atoms: _444  and  _445
REMARK  189  A    between atoms: _444  and  _447
REMARK  190  A    between atoms: _447  and  _448
REMARK  191  A    between atoms: _451  and  _453
REMARK  192  A    between atoms: _453  and  _454
REMARK  193  A    between atoms: _453  and  _456
REMARK  194  A    between atoms: _456  and  _457
REMARK  195  A    between atoms: _460  and  _462
REMARK  196  A    between atoms: _462  and  _463
REMARK  197  A    between atoms: _462  and  _465
REMARK  198  A    between atoms: _465  and  _466
REMARK  199  A    between atoms: _471  and  _472
REMARK  200  A    between atoms: _474  and  _476
REMARK  201  A    between atoms: _476  and  _477
REMARK  202  A    between atoms: _476  and  _479
REMARK  203  A    between atoms: _482  and  _484
REMARK  204  A    between atoms: _484  and  _485
REMARK  205  A    between atoms: _487  and  _489
REMARK  206  A    between atoms: _489  and  _490
REMARK  207  A    between atoms: _489  and  _492
REMARK  208  A    between atoms: _492  and  _493
REMARK  209  A    between atoms: _499  and  _501
REMARK  210  A    between atoms: _501  and  _502
REMARK  211  A    between atoms: _504  and  _506
REMARK  212  A    between atoms: _506  and  _507
REMARK  213  A    between atoms: _506  and  _509
REMARK  214  A    between atoms: _509  and  _510
REMARK  215  A    between atoms: _516  and  _518
REMARK  216  A    between atoms: _518  and  _519
REMARK  217  A    between atoms: _521  and  _523
REMARK  218  A    between atoms: _523  and  _524
REMARK  219  A    between atoms: _526  and  _528
REMARK  220  A    between atoms: _528  and  _529
REMARK  221  A    between atoms: _528  and  _531
REMARK  222  A    between atoms: _531  and  _532
REMARK  223  A    between atoms: _532  and  _533
REMARK  224  A    between atoms: _538  and  _540
REMARK  225  A    between atoms: _540  and  _541
REMARK  226  A    between atoms: _543  and  _545
REMARK  227  A    between atoms: _545  and  _546
REMARK  228  A    between atoms: _545  and  _548
REMARK  229  A    between atoms: _548  and  _549
REMARK  230  A    between atoms: _552  and  _554
REMARK  231  A    between atoms: _554  and  _555
REMARK  232  A    between atoms: _557  and  _559
REMARK  233  A    between atoms: _559  and  _560
REMARK  234  A    between atoms: _559  and  _562
REMARK  235  A    between atoms: _562  and  _563
REMARK  236  A    between atoms: _566  and  _568
REMARK  237  A    between atoms: _568  and  _569
REMARK  238  A    between atoms: _568  and  _571
REMARK  239  A    between atoms: _571  and  _572
REMARK  240  A    between atoms: _577  and  _579
REMARK  241  A    between atoms: _579  and  _580
REMARK  242  A    between atoms: _579  and  _582
REMARK  243  A    between atoms: _582  and  _583
REMARK  244  A    between atoms: _586  and  _588
REMARK  245  A    between atoms: _588  and  _589
REMARK  246  A    between atoms: _591  and  _593
REMARK  247  A    between atoms: _593  and  _594
REMARK  248  A    between atoms: _593  and  _596
REMARK  249  A    between atoms: _596  and  _597
REMARK  250  A    between atoms: _600  and  _602
REMARK  251  A    between atoms: _602  and  _603
REMARK  252  A    between atoms: _602  and  _605
REMARK                            x       y       z     vdW  Elec       q    Type
REMARK                         _______ _______ _______ _____ _____    ______ ____
ROOT
ATOM      1  O   HOH     1      10.120  38.490  12.965  0.00  0.00    +0.000 OA
ENDROOT
TORSDOF 0
REMARK  Name = ../refined-set-2016/3uri/3uri_pocket.pdb
REMARK  252 active torsions:
REMARK  status: ('A' for Active; 'I' for Inactive)
REMARK    1  A    between atoms: _1  and  _3
REMARK    2  A    between atoms: _3  and  _4
REMARK    3  A    between atoms: _3  and  _6
REMARK    4  A    between atoms: _6  and  _7
REMARK    5  A    between atoms: _10  and  _12
REMARK    6  A    between atoms: _12  and  _13
REMARK    7  A    between atoms: _12  and  _15
REMARK    8  A    between atoms: _15  and  _16
REMARK    9  A    between atoms: _19  and  _21
REMARK   10  A    between atoms: _21  and  _22
REMARK   11  A    between atoms: _21  and  _24
REMARK   12  A    between atoms: _24  and  _25
REMARK   13  A    between atoms: _28  and  _30
REMARK   14  A    between atoms: _30  and  _31
REMARK   15  A    between atoms: _30  and  _33
REMARK   16  A    between atoms: _33  and  _34
REMARK   17  A    between atoms: _37  and  _39
REMARK   18  A    between atoms: _39  and  _40
REMARK   19  A    between atoms: _39  and  _42
REMARK   20  A    between atoms: _42  and  _43
REMARK   21  A    between atoms: _46  and  _48
REMARK   22  A    between atoms: _48  and  _49
REMARK   23  A    between atoms: _52  and  _54
REMARK   24  A    between atoms: _54  and  _55
REMARK   25  A    between atoms: _54  and  _57
REMARK   26  A    between atoms: _57  and  _58
REMARK   27  A    between atoms: _63  and  _64
REMARK   28  A    between atoms: _66  and  _68
REMARK   29  A    between atoms: _68  and  _69
REMARK   30  A    between atoms: _68  and  _71
REMARK   31  A    between atoms: _71  and  _72
REMARK   32  A    between atoms: _75  and  _77
REMARK   33  A    between atoms: _77  and  _78
REMARK   34  A    between atoms: _77  and  _80
REMARK   35  A    between atoms: _80  and  _81
REMARK   36  A    between atoms: _84  and  _86
REMARK   37  A    between atoms: _86  and  _87
REMARK   38  A    between atoms: _86  and  _89
REMARK   39  A    between atoms: _89  and  _90
REMARK   40  A    between atoms: _96  and  _98
REMARK   41  A    between atoms: _98  and  _99
REMARK   42  A    between atoms: _98  and  _101
REMARK   43  A    between atoms: _101  and  _102
REMARK   44  A    between atoms: _105  and  _107
REMARK   45  A    between atoms: _107  and  _108
REMARK   46  A    between atoms: _107  and  _110
REMARK   47  A    between atoms: _110  and  _111
REMARK   48  A    between atoms: _114  and  _116
REMARK   49  A    between atoms: _116  and  _117
REMARK   50  A    between atoms: _119  and  _121
REMARK   51  A    between atoms: _121  and  _122
REMARK   52  A    between atoms: _121  and  _124
REMARK   53  A    between atoms: _124  and  _125
REMARK   54  A    between atoms: _127  and  _129
REMARK   55  A    between atoms: _129  and  _130
REMARK   56  A    between atoms: _129  and  _132
REMARK   57  A    between atoms: _132  and  _133
REMARK   58  A    between atoms: _135  and  _137
REMARK   59  A    between atoms: _137  and  _138
REMARK   60  A    between atoms: _137  and  _140
REMARK   61  A    between atoms: _140  and  _141
REMARK   62  A    between atoms: _144  and  _146
REMARK   63  A    between atoms: _146  and  _147
REMARK   64  A    between atoms: _146  and  _149
REMARK   65  A    between atoms: _149  and  _150
REMARK   66  A    between atoms: _160  and  _162
REMARK   67  A    between atoms: _162  and  _163
REMARK   68  A    between atoms: _162  and  _165
REMARK   69  A    between atoms: _165  and  _166
REMARK   70  A    between atoms: _168  and  _170
REMARK   71  A    between atoms: _170  and  _171
REMARK   72  A    between atoms: _170  and  _173
REMARK   73  A    between atoms: _173  and  _174
REMARK   74  A    between atoms: _177  and  _179
REMARK   75  A    between atoms: _179  and  _180
REMARK   76  A    between atoms: _179  and  _182
REMARK   77  A    between atoms: _182  and  _183
REMARK   78  A    between atoms: _185  and  _187
REMARK   79  A    between atoms: _187  and  _188
REMARK   80  A    between atoms: _187  and  _190
REMARK   81  A    between atoms: _190  and  _191
REMARK   82  A    between atoms: _196  and  _197
REMARK   83  A    between atoms: _199  and  _201
REMARK   84  A    between atoms: _201  and  _202
REMARK   85  A    between atoms: _204  and  _206
REMARK   86  A    between atoms: _206  and  _207
REMARK   87  A    between atoms: _206  and  _209
REMARK   88  A    between atoms: _209  and  _210
REMARK   89  A    between atoms: _213  and  _215
REMARK   90  A    between atoms: _215  and  _216
REMARK   91  A    between atoms: _218  and  _220
REMARK   92  A    between atoms: _220  and  _221
REMARK   93  A    between atoms: _220  and  _223
REMARK   94  A    between atoms: _223  and  _224
REMARK   95  A    between atoms: _226  and  _228
REMARK   96  A    between atoms: _228  and  _229
REMARK   97  A    between atoms: _228  and  _231
REMARK   98  A    between atoms: _231  and  _232
REMARK   99  A    between atoms: _234  and  _236
REMARK  100  A    between atoms: _236  and  _237
REMARK  101  A    between atoms: _236  and  _239
REMARK  102  A    between atoms: _239  and  _240
REMARK  103  A    between atoms: _242  and  _244
REMARK  104  A    between atoms: _244  and  _245
REMARK  105  A    between atoms: _244  and  _247
REMARK  106  A    between atoms: _247  and  _248
REMARK  107  A    between atoms: _250  and  _252
REMARK  108  A    between atoms: _252  and  _253
REMARK  109  A    between atoms: _252  and  _255
REMARK  110  A    between atoms: _255  and  _256
REMARK  111  A    between atoms: _262  and  _264
REMARK  112  A    between atoms: _264  and  _265
REMARK  113  A    between atoms: _264  and  _267
REMARK  114  A    between atoms: _267  and  _268
REMARK  115  A    between atoms: _268  and  _269
REMARK  116  A    between atoms: _272  and  _274
REMARK  117  A    between atoms: _274  and  _275
REMARK  118  A    between atoms: _274  and  _277
REMARK  119  A    between atoms: _277  and  _278
REMARK  120  A    between atoms: _281  and  _283
REMARK  121  A    between atoms: _283  and  _284
REMARK  122  A    between atoms: _283  and  _286
REMARK  123  A    between atoms: _286  and  _287
REMARK  124  A    between atoms: _290  and  _292
REMARK  125  A    between atoms: _292  and  _293
REMARK  126  A    between atoms: _292  and  _295
REMARK  127  A    between atoms: _295  and  _296
REMARK  128  A    between atoms: _299  and  _301
REMARK  129  A    between atoms: _301  and  _302
REMARK  130  A    between atoms: _304  and  _306
REMARK  131  A    between atoms: _306  and  _307
REMARK  132  A    between atoms: _306  and  _309
REMARK  133  A    between atoms: _309  and  _310
REMARK  134  A    between atoms: _313  and  _315
REMARK  135  A    between atoms: _315  and  _316
REMARK  136  A    between atoms: _315  and  _318
REMARK  137  A    between atoms: _318  and  _319
REMARK  138  A    between atoms: _322  and  _324
REMARK  139  A    between atoms: _324  and  _325
REMARK  140  A    between atoms: _328  and  _330
REMARK  141  A    between atoms: _330  and  _331
REMARK  142  A    between atoms: _330  and  _333
REMARK  143  A    between atoms: _333  and  _334
REMARK  144  A    between atoms: _337  and  _339
REMARK  145  A    between atoms: _339  and  _340
REMARK  146  A    between atoms: _339  and  _342
REMARK  147  A    between atoms: _342  and  _343
REMARK  148  A    between atoms: _348  and  _350
REMARK  149  A    between atoms: _350  and  _351
REMARK  150  A    between atoms: _350  and  _353
REMARK  151  A    between atoms: _353  and  _354
REMARK  152  A    between atoms: _357  and  _359
REMARK  153  A    between atoms: _359  and  _360
REMARK  154  A    between atoms: _359  and  _362
REMARK  155  A    between atoms: _362  and  _363
REMARK  156  A    between atoms: _363  and  _364
REMARK  157  A    between atoms: _369  and  _371
REMARK  158  A    between atoms: _371  and  _372
REMARK  159  A    between atoms: _374  and  _376
REMARK  160  A    between atoms: _376  and  _377
REMARK  161  A    between atoms: _376  and  _379
REMARK  162  A    between atoms: _379  and  _380
REMARK  163  A    between atoms: _386  and  _388
REMARK  164  A    between atoms: _388  and  _389
REMARK  165  A    between atoms: _388  and  _391
REMARK  166  A    between atoms: _391  and  _392
REMARK  167  A    between atoms: _395  and  _397
REMARK  168  A    between atoms: _397  and  _398
REMARK  169  A    between atoms: _401  and  _403
REMARK  170  A    between atoms: _403  and  _404
REMARK  171  A    between atoms: _403  and  _406
REMARK  172  A    between atoms: _406  and  _407
REMARK  173  A    between atoms: _410  and  _412
REMARK  174  A    between atoms: _412  and  _413
REMARK  175  A    between atoms: _412  and  _415
REMARK  176  A    between atoms: _415  and  _416
REMARK  177  A    between atoms: _419  and  _421
REMARK  178  A    between atoms: _421  and  _422
REMARK  179  A    between atoms: _424  and  _426
REMARK  180  A    between atoms: _426  and  _427
REMARK  181  A    between atoms: _426  and  _429
REMARK  182  A    between atoms: _429  and  _430
REMARK  183  A    between atoms: _433  and  _435
REMARK  184  A    between atoms: _435  and  _436
REMARK  185  A    between atoms: _435  and  _438
REMARK  186  A    between atoms: _438  and  _439
REMARK  187  A    between atoms: _442  and  _444
REMARK  188  A    between atoms: _444  and  _445
REMARK  189  A    between atoms: _444  and  _447
REMARK  190  A    between atoms: _447  and  _448
REMARK  191  A    between atoms: _451  and  _453
REMARK  192  A    between atoms: _453  and  _454
REMARK  193  A    between atoms: _453  and  _456
REMARK  194  A    between atoms: _456  and  _457
REMARK  195  A    between atoms: _460  and  _462
REMARK  196  A    between atoms: _462  and  _463
REMARK  197  A    between atoms: _462  and  _465
REMARK  198  A    between atoms: _465  and  _466
REMARK  199  A    between atoms: _471  and  _472
REMARK  200  A    between atoms: _474  and  _476
REMARK  201  A    between atoms: _476  and  _477
REMARK  202  A    between atoms: _476  and  _479
REMARK  203  A    between atoms: _482  and  _484
REMARK  204  A    between atoms: _484  and  _485
REMARK  205  A    between atoms: _487  and  _489
REMARK  206  A    between atoms: _489  and  _490
REMARK  207  A    between atoms: _489  and  _492
REMARK  208  A    between atoms: _492  and  _493
REMARK  209  A    between atoms: _499  and  _501
REMARK  210  A    between atoms: _501  and  _502
REMARK  211  A    between atoms: _504  and  _506
REMARK  212  A    between atoms: _506  and  _507
REMARK  213  A    between atoms: _506  and  _509
REMARK  214  A    between atoms: _509  and  _510
REMARK  215  A    between atoms: _516  and  _518
REMARK  216  A    between atoms: _518  and  _519
REMARK  217  A    between atoms: _521  and  _523
REMARK  218  A    between atoms: _523  and  _524
REMARK  219  A    between atoms: _526  and  _528
REMARK  220  A    between atoms: _528  and  _529
REMARK  221  A    between atoms: _528  and  _531
REMARK  222  A    between atoms: _531  and  _532
REMARK  223  A    between atoms: _532  and  _533
REMARK  224  A    between atoms: _538  and  _540
REMARK  225  A    between atoms: _540  and  _541
REMARK  226  A    between atoms: _543  and  _545
REMARK  227  A    between atoms: _545  and  _546
REMARK  228  A    between atoms: _545  and  _548
REMARK  229  A    between atoms: _548  and  _549
REMARK  230  A    between atoms: _552  and  _554
REMARK  231  A    between atoms: _554  and  _555
REMARK  232  A    between atoms: _557  and  _559
REMARK  233  A    between atoms: _559  and  _560
REMARK  234  A    between atoms: _559  and  _562
REMARK  235  A    between atoms: _562  and  _563
REMARK  236  A    between atoms: _566  and  _568
REMARK  237  A    between atoms: _568  and  _569
REMARK  238  A    between atoms: _568  and  _571
REMARK  239  A    between atoms: _571  and  _572
REMARK  240  A    between atoms: _577  and  _579
REMARK  241  A    between atoms: _579  and  _580
REMARK  242  A    between atoms: _579  and  _582
REMARK  243  A    between atoms: _582  and  _583
REMARK  244  A    between atoms: _586  and  _588
REMARK  245  A    between atoms: _588  and  _589
REMARK  246  A    between atoms: _591  and  _593
REMARK  247  A    between atoms: _593  and  _594
REMARK  248  A    between atoms: _593  and  _596
REMARK  249  A    between atoms: _596  and  _597
REMARK  250  A    between atoms: _600  and  _602
REMARK  251  A    between atoms: _602  and  _603
REMARK  252  A    between atoms: _602  and  _605
REMARK                            x       y       z     vdW  Elec       q    Type
REMARK                         _______ _______ _______ _____ _____    ______ ____
ROOT
ATOM      1  O   HOH     1       3.915  46.921  14.441  0.00  0.00    +0.000 OA
ENDROOT
TORSDOF 0
REMARK  Name = ../refined-set-2016/3uri/3uri_pocket.pdb
REMARK  252 active torsions:
REMARK  status: ('A' for Active; 'I' for Inactive)
REMARK    1  A    between atoms: _1  and  _3
REMARK    2  A    between atoms: _3  and  _4
REMARK    3  A    between atoms: _3  and  _6
REMARK    4  A    between atoms: _6  and  _7
REMARK    5  A    between atoms: _10  and  _12
REMARK    6  A    between atoms: _12  and  _13
REMARK    7  A    between atoms: _12  and  _15
REMARK    8  A    between atoms: _15  and  _16
REMARK    9  A    between atoms: _19  and  _21
REMARK   10  A    between atoms: _21  and  _22
REMARK   11  A    between atoms: _21  and  _24
REMARK   12  A    between atoms: _24  and  _25
REMARK   13  A    between atoms: _28  and  _30
REMARK   14  A    between atoms: _30  and  _31
REMARK   15  A    between atoms: _30  and  _33
REMARK   16  A    between atoms: _33  and  _34
REMARK   17  A    between atoms: _37  and  _39
REMARK   18  A    between atoms: _39  and  _40
REMARK   19  A    between atoms: _39  and  _42
REMARK   20  A    between atoms: _42  and  _43
REMARK   21  A    between atoms: _46  and  _48
REMARK   22  A    between atoms: _48  and  _49
REMARK   23  A    between atoms: _52  and  _54
REMARK   24  A    between atoms: _54  and  _55
REMARK   25  A    between atoms: _54  and  _57
REMARK   26  A    between atoms: _57  and  _58
REMARK   27  A    between atoms: _63  and  _64
REMARK   28  A    between atoms: _66  and  _68
REMARK   29  A    between atoms: _68  and  _69
REMARK   30  A    between atoms: _68  and  _71
REMARK   31  A    between atoms: _71  and  _72
REMARK   32  A    between atoms: _75  and  _77
REMARK   33  A    between atoms: _77  and  _78
REMARK   34  A    between atoms: _77  and  _80
REMARK   35  A    between atoms: _80  and  _81
REMARK   36  A    between atoms: _84  and  _86
REMARK   37  A    between atoms: _86  and  _87
REMARK   38  A    between atoms: _86  and  _89
REMARK   39  A    between atoms: _89  and  _90
REMARK   40  A    between atoms: _96  and  _98
REMARK   41  A    between atoms: _98  and  _99
REMARK   42  A    between atoms: _98  and  _101
REMARK   43  A    between atoms: _101  and  _102
REMARK   44  A    between atoms: _105  and  _107
REMARK   45  A    between atoms: _107  and  _108
REMARK   46  A    between atoms: _107  and  _110
REMARK   47  A    between atoms: _110  and  _111
REMARK   48  A    between atoms: _114  and  _116
REMARK   49  A    between atoms: _116  and  _117
REMARK   50  A    between atoms: _119  and  _121
REMARK   51  A    between atoms: _121  and  _122
REMARK   52  A    between atoms: _121  and  _124
REMARK   53  A    between atoms: _124  and  _125
REMARK   54  A    between atoms: _127  and  _129
REMARK   55  A    between atoms: _129  and  _130
REMARK   56  A    between atoms: _129  and  _132
REMARK   57  A    between atoms: _132  and  _133
REMARK   58  A    between atoms: _135  and  _137
REMARK   59  A    between atoms: _137  and  _138
REMARK   60  A    between atoms: _137  and  _140
REMARK   61  A    between atoms: _140  and  _141
REMARK   62  A    between atoms: _144  and  _146
REMARK   63  A    between atoms: _146  and  _147
REMARK   64  A    between atoms: _146  and  _149
REMARK   65  A    between atoms: _149  and  _150
REMARK   66  A    between atoms: _160  and  _162
REMARK   67  A    between atoms: _162  and  _163
REMARK   68  A    between atoms: _162  and  _165
REMARK   69  A    between atoms: _165  and  _166
REMARK   70  A    between atoms: _168  and  _170
REMARK   71  A    between atoms: _170  and  _171
REMARK   72  A    between atoms: _170  and  _173
REMARK   73  A    between atoms: _173  and  _174
REMARK   74  A    between atoms: _177  and  _179
REMARK   75  A    between atoms: _179  and  _180
REMARK   76  A    between atoms: _179  and  _182
REMARK   77  A    between atoms: _182  and  _183
REMARK   78  A    between atoms: _185  and  _187
REMARK   79  A    between atoms: _187  and  _188
REMARK   80  A    between atoms: _187  and  _190
REMARK   81  A    between atoms: _190  and  _191
REMARK   82  A    between atoms: _196  and  _197
REMARK   83  A    between atoms: _199  and  _201
REMARK   84  A    between atoms: _201  and  _202
REMARK   85  A    between atoms: _204  and  _206
REMARK   86  A    between atoms: _206  and  _207
REMARK   87  A    between atoms: _206  and  _209
REMARK   88  A    between atoms: _209  and  _210
REMARK   89  A    between atoms: _213  and  _215
REMARK   90  A    between atoms: _215  and  _216
REMARK   91  A    between atoms: _218  and  _220
REMARK   92  A    between atoms: _220  and  _221
REMARK   93  A    between atoms: _220  and  _223
REMARK   94  A    between atoms: _223  and  _224
REMARK   95  A    between atoms: _226  and  _228
REMARK   96  A    between atoms: _228  and  _229
REMARK   97  A    between atoms: _228  and  _231
REMARK   98  A    between atoms: _231  and  _232
REMARK   99  A    between atoms: _234  and  _236
REMARK  100  A    between atoms: _236  and  _237
REMARK  101  A    between atoms: _236  and  _239
REMARK  102  A    between atoms: _239  and  _240
REMARK  103  A    between atoms: _242  and  _244
REMARK  104  A    between atoms: _244  and  _245
REMARK  105  A    between atoms: _244  and  _247
REMARK  106  A    between atoms: _247  and  _248
REMARK  107  A    between atoms: _250  and  _252
REMARK  108  A    between atoms: _252  and  _253
REMARK  109  A    between atoms: _252  and  _255
REMARK  110  A    between atoms: _255  and  _256
REMARK  111  A    between atoms: _262  and  _264
REMARK  112  A    between atoms: _264  and  _265
REMARK  113  A    between atoms: _264  and  _267
REMARK  114  A    between atoms: _267  and  _268
REMARK  115  A    between atoms: _268  and  _269
REMARK  116  A    between atoms: _272  and  _274
REMARK  117  A    between atoms: _274  and  _275
REMARK  118  A    between atoms: _274  and  _277
REMARK  119  A    between atoms: _277  and  _278
REMARK  120  A    between atoms: _281  and  _283
REMARK  121  A    between atoms: _283  and  _284
REMARK  122  A    between atoms: _283  and  _286
REMARK  123  A    between atoms: _286  and  _287
REMARK  124  A    between atoms: _290  and  _292
REMARK  125  A    between atoms: _292  and  _293
REMARK  126  A    between atoms: _292  and  _295
REMARK  127  A    between atoms: _295  and  _296
REMARK  128  A    between atoms: _299  and  _301
REMARK  129  A    between atoms: _301  and  _302
REMARK  130  A    between atoms: _304  and  _306
REMARK  131  A    between atoms: _306  and  _307
REMARK  132  A    between atoms: _306  and  _309
REMARK  133  A    between atoms: _309  and  _310
REMARK  134  A    between atoms: _313  and  _315
REMARK  135  A    between atoms: _315  and  _316
REMARK  136  A    between atoms: _315  and  _318
REMARK  137  A    between atoms: _318  and  _319
REMARK  138  A    between atoms: _322  and  _324
REMARK  139  A    between atoms: _324  and  _325
REMARK  140  A    between atoms: _328  and  _330
REMARK  141  A    between atoms: _330  and  _331
REMARK  142  A    between atoms: _330  and  _333
REMARK  143  A    between atoms: _333  and  _334
REMARK  144  A    between atoms: _337  and  _339
REMARK  145  A    between atoms: _339  and  _340
REMARK  146  A    between atoms: _339  and  _342
REMARK  147  A    between atoms: _342  and  _343
REMARK  148  A    between atoms: _348  and  _350
REMARK  149  A    between atoms: _350  and  _351
REMARK  150  A    between atoms: _350  and  _353
REMARK  151  A    between atoms: _353  and  _354
REMARK  152  A    between atoms: _357  and  _359
REMARK  153  A    between atoms: _359  and  _360
REMARK  154  A    between atoms: _359  and  _362
REMARK  155  A    between atoms: _362  and  _363
REMARK  156  A    between atoms: _363  and  _364
REMARK  157  A    between atoms: _369  and  _371
REMARK  158  A    between atoms: _371  and  _372
REMARK  159  A    between atoms: _374  and  _376
REMARK  160  A    between atoms: _376  and  _377
REMARK  161  A    between atoms: _376  and  _379
REMARK  162  A    between atoms: _379  and  _380
REMARK  163  A    between atoms: _386  and  _388
REMARK  164  A    between atoms: _388  and  _389
REMARK  165  A    between atoms: _388  and  _391
REMARK  166  A    between atoms: _391  and  _392
REMARK  167  A    between atoms: _395  and  _397
REMARK  168  A    between atoms: _397  and  _398
REMARK  169  A    between atoms: _401  and  _403
REMARK  170  A    between atoms: _403  and  _404
REMARK  171  A    between atoms: _403  and  _406
REMARK  172  A    between atoms: _406  and  _407
REMARK  173  A    between atoms: _410  and  _412
REMARK  174  A    between atoms: _412  and  _413
REMARK  175  A    between atoms: _412  and  _415
REMARK  176  A    between atoms: _415  and  _416
REMARK  177  A    between atoms: _419  and  _421
REMARK  178  A    between atoms: _421  and  _422
REMARK  179  A    between atoms: _424  and  _426
REMARK  180  A    between atoms: _426  and  _427
REMARK  181  A    between atoms: _426  and  _429
REMARK  182  A    between atoms: _429  and  _430
REMARK  183  A    between atoms: _433  and  _435
REMARK  184  A    between atoms: _435  and  _436
REMARK  185  A    between atoms: _435  and  _438
REMARK  186  A    between atoms: _438  and  _439
REMARK  187  A    between atoms: _442  and  _444
REMARK  188  A    between atoms: _444  and  _445
REMARK  189  A    between atoms: _444  and  _447
REMARK  190  A    between atoms: _447  and  _448
REMARK  191  A    between atoms: _451  and  _453
REMARK  192  A    between atoms: _453  and  _454
REMARK  193  A    between atoms: _453  and  _456
REMARK  194  A    between atoms: _456  and  _457
REMARK  195  A    between atoms: _460  and  _462
REMARK  196  A    between atoms: _462  and  _463
REMARK  197  A    between atoms: _462  and  _465
REMARK  198  A    between atoms: _465  and  _466
REMARK  199  A    between atoms: _471  and  _472
REMARK  200  A    between atoms: _474  and  _476
REMARK  201  A    between atoms: _476  and  _477
REMARK  202  A    between atoms: _476  and  _479
REMARK  203  A    between atoms: _482  and  _484
REMARK  204  A    between atoms: _484  and  _485
REMARK  205  A    between atoms: _487  and  _489
REMARK  206  A    between atoms: _489  and  _490
REMARK  207  A    between atoms: _489  and  _492
REMARK  208  A    between atoms: _492  and  _493
REMARK  209  A    between atoms: _499  and  _501
REMARK  210  A    between atoms: _501  and  _502
REMARK  211  A    between atoms: _504  and  _506
REMARK  212  A    between atoms: _506  and  _507
REMARK  213  A    between atoms: _506  and  _509
REMARK  214  A    between atoms: _509  and  _510
REMARK  215  A    between atoms: _516  and  _518
REMARK  216  A    between atoms: _518  and  _519
REMARK  217  A    between atoms: _521  and  _523
REMARK  218  A    between atoms: _523  and  _524
REMARK  219  A    between atoms: _526  and  _528
REMARK  220  A    between atoms: _528  and  _529
REMARK  221  A    between atoms: _528  and  _531
REMARK  222  A    between atoms: _531  and  _532
REMARK  223  A    between atoms: _532  and  _533
REMARK  224  A    between atoms: _538  and  _540
REMARK  225  A    between atoms: _540  and  _541
REMARK  226  A    between atoms: _543  and  _545
REMARK  227  A    between atoms: _545  and  _546
REMARK  228  A    between atoms: _545  and  _548
REMARK  229  A    between atoms: _548  and  _549
REMARK  230  A    between atoms: _552  and  _554
REMARK  231  A    between atoms: _554  and  _555
REMARK  232  A    between atoms: _557  and  _559
REMARK  233  A    between atoms: _559  and  _560
REMARK  234  A    between atoms: _559  and  _562
REMARK  235  A    between atoms: _562  and  _563
REMARK  236  A    between atoms: _566  and  _568
REMARK  237  A    between atoms: _568  and  _569
REMARK  238  A    between atoms: _568  and  _571
REMARK  239  A    between atoms: _571  and  _572
REMARK  240  A    between atoms: _577  and  _579
REMARK  241  A    between atoms: _579  and  _580
REMARK  242  A    between atoms: _579  and  _582
REMARK  243  A    between atoms: _582  and  _583
REMARK  244  A    between atoms: _586  and  _588
REMARK  245  A    between atoms: _588  and  _589
REMARK  246  A    between atoms: _591  and  _593
REMARK  247  A    between atoms: _593  and  _594
REMARK  248  A    between atoms: _593  and  _596
REMARK  249  A    between atoms: _596  and  _597
REMARK  250  A    between atoms: _600  and  _602
REMARK  251  A    between atoms: _602  and  _603
REMARK  252  A    between atoms: _602  and  _605
REMARK                            x       y       z     vdW  Elec       q    Type
REMARK                         _______ _______ _______ _____ _____    ______ ____
ROOT
ATOM      1  O   HOH     1      12.723  32.948  23.441  0.00  0.00    +0.000 OA
ENDROOT
TORSDOF 0
REMARK  Name = ../refined-set-2016/3uri/3uri_pocket.pdb
REMARK  252 active torsions:
REMARK  status: ('A' for Active; 'I' for Inactive)
REMARK    1  A    between atoms: _1  and  _3
REMARK    2  A    between atoms: _3  and  _4
REMARK    3  A    between atoms: _3  and  _6
REMARK    4  A    between atoms: _6  and  _7
REMARK    5  A    between atoms: _10  and  _12
REMARK    6  A    between atoms: _12  and  _13
REMARK    7  A    between atoms: _12  and  _15
REMARK    8  A    between atoms: _15  and  _16
REMARK    9  A    between atoms: _19  and  _21
REMARK   10  A    between atoms: _21  and  _22
REMARK   11  A    between atoms: _21  and  _24
REMARK   12  A    between atoms: _24  and  _25
REMARK   13  A    between atoms: _28  and  _30
REMARK   14  A    between atoms: _30  and  _31
REMARK   15  A    between atoms: _30  and  _33
REMARK   16  A    between atoms: _33  and  _34
REMARK   17  A    between atoms: _37  and  _39
REMARK   18  A    between atoms: _39  and  _40
REMARK   19  A    between atoms: _39  and  _42
REMARK   20  A    between atoms: _42  and  _43
REMARK   21  A    between atoms: _46  and  _48
REMARK   22  A    between atoms: _48  and  _49
REMARK   23  A    between atoms: _52  and  _54
REMARK   24  A    between atoms: _54  and  _55
REMARK   25  A    between atoms: _54  and  _57
REMARK   26  A    between atoms: _57  and  _58
REMARK   27  A    between atoms: _63  and  _64
REMARK   28  A    between atoms: _66  and  _68
REMARK   29  A    between atoms: _68  and  _69
REMARK   30  A    between atoms: _68  and  _71
REMARK   31  A    between atoms: _71  and  _72
REMARK   32  A    between atoms: _75  and  _77
REMARK   33  A    between atoms: _77  and  _78
REMARK   34  A    between atoms: _77  and  _80
REMARK   35  A    between atoms: _80  and  _81
REMARK   36  A    between atoms: _84  and  _86
REMARK   37  A    between atoms: _86  and  _87
REMARK   38  A    between atoms: _86  and  _89
REMARK   39  A    between atoms: _89  and  _90
REMARK   40  A    between atoms: _96  and  _98
REMARK   41  A    between atoms: _98  and  _99
REMARK   42  A    between atoms: _98  and  _101
REMARK   43  A    between atoms: _101  and  _102
REMARK   44  A    between atoms: _105  and  _107
REMARK   45  A    between atoms: _107  and  _108
REMARK   46  A    between atoms: _107  and  _110
REMARK   47  A    between atoms: _110  and  _111
REMARK   48  A    between atoms: _114  and  _116
REMARK   49  A    between atoms: _116  and  _117
REMARK   50  A    between atoms: _119  and  _121
REMARK   51  A    between atoms: _121  and  _122
REMARK   52  A    between atoms: _121  and  _124
REMARK   53  A    between atoms: _124  and  _125
REMARK   54  A    between atoms: _127  and  _129
REMARK   55  A    between atoms: _129  and  _130
REMARK   56  A    between atoms: _129  and  _132
REMARK   57  A    between atoms: _132  and  _133
REMARK   58  A    between atoms: _135  and  _137
REMARK   59  A    between atoms: _137  and  _138
REMARK   60  A    between atoms: _137  and  _140
REMARK   61  A    between atoms: _140  and  _141
REMARK   62  A    between atoms: _144  and  _146
REMARK   63  A    between atoms: _146  and  _147
REMARK   64  A    between atoms: _146  and  _149
REMARK   65  A    between atoms: _149  and  _150
REMARK   66  A    between atoms: _160  and  _162
REMARK   67  A    between atoms: _162  and  _163
REMARK   68  A    between atoms: _162  and  _165
REMARK   69  A    between atoms: _165  and  _166
REMARK   70  A    between atoms: _168  and  _170
REMARK   71  A    between atoms: _170  and  _171
REMARK   72  A    between atoms: _170  and  _173
REMARK   73  A    between atoms: _173  and  _174
REMARK   74  A    between atoms: _177  and  _179
REMARK   75  A    between atoms: _179  and  _180
REMARK   76  A    between atoms: _179  and  _182
REMARK   77  A    between atoms: _182  and  _183
REMARK   78  A    between atoms: _185  and  _187
REMARK   79  A    between atoms: _187  and  _188
REMARK   80  A    between atoms: _187  and  _190
REMARK   81  A    between atoms: _190  and  _191
REMARK   82  A    between atoms: _196  and  _197
REMARK   83  A    between atoms: _199  and  _201
REMARK   84  A    between atoms: _201  and  _202
REMARK   85  A    between atoms: _204  and  _206
REMARK   86  A    between atoms: _206  and  _207
REMARK   87  A    between atoms: _206  and  _209
REMARK   88  A    between atoms: _209  and  _210
REMARK   89  A    between atoms: _213  and  _215
REMARK   90  A    between atoms: _215  and  _216
REMARK   91  A    between atoms: _218  and  _220
REMARK   92  A    between atoms: _220  and  _221
REMARK   93  A    between atoms: _220  and  _223
REMARK   94  A    between atoms: _223  and  _224
REMARK   95  A    between atoms: _226  and  _228
REMARK   96  A    between atoms: _228  and  _229
REMARK   97  A    between atoms: _228  and  _231
REMARK   98  A    between atoms: _231  and  _232
REMARK   99  A    between atoms: _234  and  _236
REMARK  100  A    between atoms: _236  and  _237
REMARK  101  A    between atoms: _236  and  _239
REMARK  102  A    between atoms: _239  and  _240
REMARK  103  A    between atoms: _242  and  _244
REMARK  104  A    between atoms: _244  and  _245
REMARK  105  A    between atoms: _244  and  _247
REMARK  106  A    between atoms: _247  and  _248
REMARK  107  A    between atoms: _250  and  _252
REMARK  108  A    between atoms: _252  and  _253
REMARK  109  A    between atoms: _252  and  _255
REMARK  110  A    between atoms: _255  and  _256
REMARK  111  A    between atoms: _262  and  _264
REMARK  112  A    between atoms: _264  and  _265
REMARK  113  A    between atoms: _264  and  _267
REMARK  114  A    between atoms: _267  and  _268
REMARK  115  A    between atoms: _268  and  _269
REMARK  116  A    between atoms: _272  and  _274
REMARK  117  A    between atoms: _274  and  _275
REMARK  118  A    between atoms: _274  and  _277
REMARK  119  A    between atoms: _277  and  _278
REMARK  120  A    between atoms: _281  and  _283
REMARK  121  A    between atoms: _283  and  _284
REMARK  122  A    between atoms: _283  and  _286
REMARK  123  A    between atoms: _286  and  _287
REMARK  124  A    between atoms: _290  and  _292
REMARK  125  A    between atoms: _292  and  _293
REMARK  126  A    between atoms: _292  and  _295
REMARK  127  A    between atoms: _295  and  _296
REMARK  128  A    between atoms: _299  and  _301
REMARK  129  A    between atoms: _301  and  _302
REMARK  130  A    between atoms: _304  and  _306
REMARK  131  A    between atoms: _306  and  _307
REMARK  132  A    between atoms: _306  and  _309
REMARK  133  A    between atoms: _309  and  _310
REMARK  134  A    between atoms: _313  and  _315
REMARK  135  A    between atoms: _315  and  _316
REMARK  136  A    between atoms: _315  and  _318
REMARK  137  A    between atoms: _318  and  _319
REMARK  138  A    between atoms: _322  and  _324
REMARK  139  A    between atoms: _324  and  _325
REMARK  140  A    between atoms: _328  and  _330
REMARK  141  A    between atoms: _330  and  _331
REMARK  142  A    between atoms: _330  and  _333
REMARK  143  A    between atoms: _333  and  _334
REMARK  144  A    between atoms: _337  and  _339
REMARK  145  A    between atoms: _339  and  _340
REMARK  146  A    between atoms: _339  and  _342
REMARK  147  A    between atoms: _342  and  _343
REMARK  148  A    between atoms: _348  and  _350
REMARK  149  A    between atoms: _350  and  _351
REMARK  150  A    between atoms: _350  and  _353
REMARK  151  A    between atoms: _353  and  _354
REMARK  152  A    between atoms: _357  and  _359
REMARK  153  A    between atoms: _359  and  _360
REMARK  154  A    between atoms: _359  and  _362
REMARK  155  A    between atoms: _362  and  _363
REMARK  156  A    between atoms: _363  and  _364
REMARK  157  A    between atoms: _369  and  _371
REMARK  158  A    between atoms: _371  and  _372
REMARK  159  A    between atoms: _374  and  _376
REMARK  160  A    between atoms: _376  and  _377
REMARK  161  A    between atoms: _376  and  _379
REMARK  162  A    between atoms: _379  and  _380
REMARK  163  A    between atoms: _386  and  _388
REMARK  164  A    between atoms: _388  and  _389
REMARK  165  A    between atoms: _388  and  _391
REMARK  166  A    between atoms: _391  and  _392
REMARK  167  A    between atoms: _395  and  _397
REMARK  168  A    between atoms: _397  and  _398
REMARK  169  A    between atoms: _401  and  _403
REMARK  170  A    between atoms: _403  and  _404
REMARK  171  A    between atoms: _403  and  _406
REMARK  172  A    between atoms: _406  and  _407
REMARK  173  A    between atoms: _410  and  _412
REMARK  174  A    between atoms: _412  and  _413
REMARK  175  A    between atoms: _412  and  _415
REMARK  176  A    between atoms: _415  and  _416
REMARK  177  A    between atoms: _419  and  _421
REMARK  178  A    between atoms: _421  and  _422
REMARK  179  A    between atoms: _424  and  _426
REMARK  180  A    between atoms: _426  and  _427
REMARK  181  A    between atoms: _426  and  _429
REMARK  182  A    between atoms: _429  and  _430
REMARK  183  A    between atoms: _433  and  _435
REMARK  184  A    between atoms: _435  and  _436
REMARK  185  A    between atoms: _435  and  _438
REMARK  186  A    between atoms: _438  and  _439
REMARK  187  A    between atoms: _442  and  _444
REMARK  188  A    between atoms: _444  and  _445
REMARK  189  A    between atoms: _444  and  _447
REMARK  190  A    between atoms: _447  and  _448
REMARK  191  A    between atoms: _451  and  _453
REMARK  192  A    between atoms: _453  and  _454
REMARK  193  A    between atoms: _453  and  _456
REMARK  194  A    between atoms: _456  and  _457
REMARK  195  A    between atoms: _460  and  _462
REMARK  196  A    between atoms: _462  and  _463
REMARK  197  A    between atoms: _462  and  _465
REMARK  198  A    between atoms: _465  and  _466
REMARK  199  A    between atoms: _471  and  _472
REMARK  200  A    between atoms: _474  and  _476
REMARK  201  A    between atoms: _476  and  _477
REMARK  202  A    between atoms: _476  and  _479
REMARK  203  A    between atoms: _482  and  _484
REMARK  204  A    between atoms: _484  and  _485
REMARK  205  A    between atoms: _487  and  _489
REMARK  206  A    between atoms: _489  and  _490
REMARK  207  A    between atoms: _489  and  _492
REMARK  208  A    between atoms: _492  and  _493
REMARK  209  A    between atoms: _499  and  _501
REMARK  210  A    between atoms: _501  and  _502
REMARK  211  A    between atoms: _504  and  _506
REMARK  212  A    between atoms: _506  and  _507
REMARK  213  A    between atoms: _506  and  _509
REMARK  214  A    between atoms: _509  and  _510
REMARK  215  A    between atoms: _516  and  _518
REMARK  216  A    between atoms: _518  and  _519
REMARK  217  A    between atoms: _521  and  _523
REMARK  218  A    between atoms: _523  and  _524
REMARK  219  A    between atoms: _526  and  _528
REMARK  220  A    between atoms: _528  and  _529
REMARK  221  A    between atoms: _528  and  _531
REMARK  222  A    between atoms: _531  and  _532
REMARK  223  A    between atoms: _532  and  _533
REMARK  224  A    between atoms: _538  and  _540
REMARK  225  A    between atoms: _540  and  _541
REMARK  226  A    between atoms: _543  and  _545
REMARK  227  A    between atoms: _545  and  _546
REMARK  228  A    between atoms: _545  and  _548
REMARK  229  A    between atoms: _548  and  _549
REMARK  230  A    between atoms: _552  and  _554
REMARK  231  A    between atoms: _554  and  _555
REMARK  232  A    between atoms: _557  and  _559
REMARK  233  A    between atoms: _559  and  _560
REMARK  234  A    between atoms: _559  and  _562
REMARK  235  A    between atoms: _562  and  _563
REMARK  236  A    between atoms: _566  and  _568
REMARK  237  A    between atoms: _568  and  _569
REMARK  238  A    between atoms: _568  and  _571
REMARK  239  A    between atoms: _571  and  _572
REMARK  240  A    between atoms: _577  and  _579
REMARK  241  A    between atoms: _579  and  _580
REMARK  242  A    between atoms: _579  and  _582
REMARK  243  A    between atoms: _582  and  _583
REMARK  244  A    between atoms: _586  and  _588
REMARK  245  A    between atoms: _588  and  _589
REMARK  246  A    between atoms: _591  and  _593
REMARK  247  A    between atoms: _593  and  _594
REMARK  248  A    between atoms: _593  and  _596
REMARK  249  A    between atoms: _596  and  _597
REMARK  250  A    between atoms: _600  and  _602
REMARK  251  A    between atoms: _602  and  _603
REMARK  252  A    between atoms: _602  and  _605
REMARK                            x       y       z     vdW  Elec       q    Type
REMARK                         _______ _______ _______ _____ _____    ______ ____
ROOT
ATOM      1  O   HOH     1       4.349  32.823   5.557  0.00  0.00    +0.000 OA
ENDROOT
TORSDOF 0
REMARK  Name = ../refined-set-2016/3uri/3uri_pocket.pdb
REMARK  252 active torsions:
REMARK  status: ('A' for Active; 'I' for Inactive)
REMARK    1  A    between atoms: _1  and  _3
REMARK    2  A    between atoms: _3  and  _4
REMARK    3  A    between atoms: _3  and  _6
REMARK    4  A    between atoms: _6  and  _7
REMARK    5  A    between atoms: _10  and  _12
REMARK    6  A    between atoms: _12  and  _13
REMARK    7  A    between atoms: _12  and  _15
REMARK    8  A    between atoms: _15  and  _16
REMARK    9  A    between atoms: _19  and  _21
REMARK   10  A    between atoms: _21  and  _22
REMARK   11  A    between atoms: _21  and  _24
REMARK   12  A    between atoms: _24  and  _25
REMARK   13  A    between atoms: _28  and  _30
REMARK   14  A    between atoms: _30  and  _31
REMARK   15  A    between atoms: _30  and  _33
REMARK   16  A    between atoms: _33  and  _34
REMARK   17  A    between atoms: _37  and  _39
REMARK   18  A    between atoms: _39  and  _40
REMARK   19  A    between atoms: _39  and  _42
REMARK   20  A    between atoms: _42  and  _43
REMARK   21  A    between atoms: _46  and  _48
REMARK   22  A    between atoms: _48  and  _49
REMARK   23  A    between atoms: _52  and  _54
REMARK   24  A    between atoms: _54  and  _55
REMARK   25  A    between atoms: _54  and  _57
REMARK   26  A    between atoms: _57  and  _58
REMARK   27  A    between atoms: _63  and  _64
REMARK   28  A    between atoms: _66  and  _68
REMARK   29  A    between atoms: _68  and  _69
REMARK   30  A    between atoms: _68  and  _71
REMARK   31  A    between atoms: _71  and  _72
REMARK   32  A    between atoms: _75  and  _77
REMARK   33  A    between atoms: _77  and  _78
REMARK   34  A    between atoms: _77  and  _80
REMARK   35  A    between atoms: _80  and  _81
REMARK   36  A    between atoms: _84  and  _86
REMARK   37  A    between atoms: _86  and  _87
REMARK   38  A    between atoms: _86  and  _89
REMARK   39  A    between atoms: _89  and  _90
REMARK   40  A    between atoms: _96  and  _98
REMARK   41  A    between atoms: _98  and  _99
REMARK   42  A    between atoms: _98  and  _101
REMARK   43  A    between atoms: _101  and  _102
REMARK   44  A    between atoms: _105  and  _107
REMARK   45  A    between atoms: _107  and  _108
REMARK   46  A    between atoms: _107  and  _110
REMARK   47  A    between atoms: _110  and  _111
REMARK   48  A    between atoms: _114  and  _116
REMARK   49  A    between atoms: _116  and  _117
REMARK   50  A    between atoms: _119  and  _121
REMARK   51  A    between atoms: _121  and  _122
REMARK   52  A    between atoms: _121  and  _124
REMARK   53  A    between atoms: _124  and  _125
REMARK   54  A    between atoms: _127  and  _129
REMARK   55  A    between atoms: _129  and  _130
REMARK   56  A    between atoms: _129  and  _132
REMARK   57  A    between atoms: _132  and  _133
REMARK   58  A    between atoms: _135  and  _137
REMARK   59  A    between atoms: _137  and  _138
REMARK   60  A    between atoms: _137  and  _140
REMARK   61  A    between atoms: _140  and  _141
REMARK   62  A    between atoms: _144  and  _146
REMARK   63  A    between atoms: _146  and  _147
REMARK   64  A    between atoms: _146  and  _149
REMARK   65  A    between atoms: _149  and  _150
REMARK   66  A    between atoms: _160  and  _162
REMARK   67  A    between atoms: _162  and  _163
REMARK   68  A    between atoms: _162  and  _165
REMARK   69  A    between atoms: _165  and  _166
REMARK   70  A    between atoms: _168  and  _170
REMARK   71  A    between atoms: _170  and  _171
REMARK   72  A    between atoms: _170  and  _173
REMARK   73  A    between atoms: _173  and  _174
REMARK   74  A    between atoms: _177  and  _179
REMARK   75  A    between atoms: _179  and  _180
REMARK   76  A    between atoms: _179  and  _182
REMARK   77  A    between atoms: _182  and  _183
REMARK   78  A    between atoms: _185  and  _187
REMARK   79  A    between atoms: _187  and  _188
REMARK   80  A    between atoms: _187  and  _190
REMARK   81  A    between atoms: _190  and  _191
REMARK   82  A    between atoms: _196  and  _197
REMARK   83  A    between atoms: _199  and  _201
REMARK   84  A    between atoms: _201  and  _202
REMARK   85  A    between atoms: _204  and  _206
REMARK   86  A    between atoms: _206  and  _207
REMARK   87  A    between atoms: _206  and  _209
REMARK   88  A    between atoms: _209  and  _210
REMARK   89  A    between atoms: _213  and  _215
REMARK   90  A    between atoms: _215  and  _216
REMARK   91  A    between atoms: _218  and  _220
REMARK   92  A    between atoms: _220  and  _221
REMARK   93  A    between atoms: _220  and  _223
REMARK   94  A    between atoms: _223  and  _224
REMARK   95  A    between atoms: _226  and  _228
REMARK   96  A    between atoms: _228  and  _229
REMARK   97  A    between atoms: _228  and  _231
REMARK   98  A    between atoms: _231  and  _232
REMARK   99  A    between atoms: _234  and  _236
REMARK  100  A    between atoms: _236  and  _237
REMARK  101  A    between atoms: _236  and  _239
REMARK  102  A    between atoms: _239  and  _240
REMARK  103  A    between atoms: _242  and  _244
REMARK  104  A    between atoms: _244  and  _245
REMARK  105  A    between atoms: _244  and  _247
REMARK  106  A    between atoms: _247  and  _248
REMARK  107  A    between atoms: _250  and  _252
REMARK  108  A    between atoms: _252  and  _253
REMARK  109  A    between atoms: _252  and  _255
REMARK  110  A    between atoms: _255  and  _256
REMARK  111  A    between atoms: _262  and  _264
REMARK  112  A    between atoms: _264  and  _265
REMARK  113  A    between atoms: _264  and  _267
REMARK  114  A    between atoms: _267  and  _268
REMARK  115  A    between atoms: _268  and  _269
REMARK  116  A    between atoms: _272  and  _274
REMARK  117  A    between atoms: _274  and  _275
REMARK  118  A    between atoms: _274  and  _277
REMARK  119  A    between atoms: _277  and  _278
REMARK  120  A    between atoms: _281  and  _283
REMARK  121  A    between atoms: _283  and  _284
REMARK  122  A    between atoms: _283  and  _286
REMARK  123  A    between atoms: _286  and  _287
REMARK  124  A    between atoms: _290  and  _292
REMARK  125  A    between atoms: _292  and  _293
REMARK  126  A    between atoms: _292  and  _295
REMARK  127  A    between atoms: _295  and  _296
REMARK  128  A    between atoms: _299  and  _301
REMARK  129  A    between atoms: _301  and  _302
REMARK  130  A    between atoms: _304  and  _306
REMARK  131  A    between atoms: _306  and  _307
REMARK  132  A    between atoms: _306  and  _309
REMARK  133  A    between atoms: _309  and  _310
REMARK  134  A    between atoms: _313  and  _315
REMARK  135  A    between atoms: _315  and  _316
REMARK  136  A    between atoms: _315  and  _318
REMARK  137  A    between atoms: _318  and  _319
REMARK  138  A    between atoms: _322  and  _324
REMARK  139  A    between atoms: _324  and  _325
REMARK  140  A    between atoms: _328  and  _330
REMARK  141  A    between atoms: _330  and  _331
REMARK  142  A    between atoms: _330  and  _333
REMARK  143  A    between atoms: _333  and  _334
REMARK  144  A    between atoms: _337  and  _339
REMARK  145  A    between atoms: _339  and  _340
REMARK  146  A    between atoms: _339  and  _342
REMARK  147  A    between atoms: _342  and  _343
REMARK  148  A    between atoms: _348  and  _350
REMARK  149  A    between atoms: _350  and  _351
REMARK  150  A    between atoms: _350  and  _353
REMARK  151  A    between atoms: _353  and  _354
REMARK  152  A    between atoms: _357  and  _359
REMARK  153  A    between atoms: _359  and  _360
REMARK  154  A    between atoms: _359  and  _362
REMARK  155  A    between atoms: _362  and  _363
REMARK  156  A    between atoms: _363  and  _364
REMARK  157  A    between atoms: _369  and  _371
REMARK  158  A    between atoms: _371  and  _372
REMARK  159  A    between atoms: _374  and  _376
REMARK  160  A    between atoms: _376  and  _377
REMARK  161  A    between atoms: _376  and  _379
REMARK  162  A    between atoms: _379  and  _380
REMARK  163  A    between atoms: _386  and  _388
REMARK  164  A    between atoms: _388  and  _389
REMARK  165  A    between atoms: _388  and  _391
REMARK  166  A    between atoms: _391  and  _392
REMARK  167  A    between atoms: _395  and  _397
REMARK  168  A    between atoms: _397  and  _398
REMARK  169  A    between atoms: _401  and  _403
REMARK  170  A    between atoms: _403  and  _404
REMARK  171  A    between atoms: _403  and  _406
REMARK  172  A    between atoms: _406  and  _407
REMARK  173  A    between atoms: _410  and  _412
REMARK  174  A    between atoms: _412  and  _413
REMARK  175  A    between atoms: _412  and  _415
REMARK  176  A    between atoms: _415  and  _416
REMARK  177  A    between atoms: _419  and  _421
REMARK  178  A    between atoms: _421  and  _422
REMARK  179  A    between atoms: _424  and  _426
REMARK  180  A    between atoms: _426  and  _427
REMARK  181  A    between atoms: _426  and  _429
REMARK  182  A    between atoms: _429  and  _430
REMARK  183  A    between atoms: _433  and  _435
REMARK  184  A    between atoms: _435  and  _436
REMARK  185  A    between atoms: _435  and  _438
REMARK  186  A    between atoms: _438  and  _439
REMARK  187  A    between atoms: _442  and  _444
REMARK  188  A    between atoms: _444  and  _445
REMARK  189  A    between atoms: _444  and  _447
REMARK  190  A    between atoms: _447  and  _448
REMARK  191  A    between atoms: _451  and  _453
REMARK  192  A    between atoms: _453  and  _454
REMARK  193  A    between atoms: _453  and  _456
REMARK  194  A    between atoms: _456  and  _457
REMARK  195  A    between atoms: _460  and  _462
REMARK  196  A    between atoms: _462  and  _463
REMARK  197  A    between atoms: _462  and  _465
REMARK  198  A    between atoms: _465  and  _466
REMARK  199  A    between atoms: _471  and  _472
REMARK  200  A    between atoms: _474  and  _476
REMARK  201  A    between atoms: _476  and  _477
REMARK  202  A    between atoms: _476  and  _479
REMARK  203  A    between atoms: _482  and  _484
REMARK  204  A    between atoms: _484  and  _485
REMARK  205  A    between atoms: _487  and  _489
REMARK  206  A    between atoms: _489  and  _490
REMARK  207  A    between atoms: _489  and  _492
REMARK  208  A    between atoms: _492  and  _493
REMARK  209  A    between atoms: _499  and  _501
REMARK  210  A    between atoms: _501  and  _502
REMARK  211  A    between atoms: _504  and  _506
REMARK  212  A    between atoms: _506  and  _507
REMARK  213  A    between atoms: _506  and  _509
REMARK  214  A    between atoms: _509  and  _510
REMARK  215  A    between atoms: _516  and  _518
REMARK  216  A    between atoms: _518  and  _519
REMARK  217  A    between atoms: _521  and  _523
REMARK  218  A    between atoms: _523  and  _524
REMARK  219  A    between atoms: _526  and  _528
REMARK  220  A    between atoms: _528  and  _529
REMARK  221  A    between atoms: _528  and  _531
REMARK  222  A    between atoms: _531  and  _532
REMARK  223  A    between atoms: _532  and  _533
REMARK  224  A    between atoms: _538  and  _540
REMARK  225  A    between atoms: _540  and  _541
REMARK  226  A    between atoms: _543  and  _545
REMARK  227  A    between atoms: _545  and  _546
REMARK  228  A    between atoms: _545  and  _548
REMARK  229  A    between atoms: _548  and  _549
REMARK  230  A    between atoms: _552  and  _554
REMARK  231  A    between atoms: _554  and  _555
REMARK  232  A    between atoms: _557  and  _559
REMARK  233  A    between atoms: _559  and  _560
REMARK  234  A    between atoms: _559  and  _562
REMARK  235  A    between atoms: _562  and  _563
REMARK  236  A    between atoms: _566  and  _568
REMARK  237  A    between atoms: _568  and  _569
REMARK  238  A    between atoms: _568  and  _571
REMARK  239  A    between atoms: _571  and  _572
REMARK  240  A    between atoms: _577  and  _579
REMARK  241  A    between atoms: _579  and  _580
REMARK  242  A    between atoms: _579  and  _582
REMARK  243  A    between atoms: _582  and  _583
REMARK  244  A    between atoms: _586  and  _588
REMARK  245  A    between atoms: _588  and  _589
REMARK  246  A    between atoms: _591  and  _593
REMARK  247  A    between atoms: _593  and  _594
REMARK  248  A    between atoms: _593  and  _596
REMARK  249  A    between atoms: _596  and  _597
REMARK  250  A    between atoms: _600  and  _602
REMARK  251  A    between atoms: _602  and  _603
REMARK  252  A    between atoms: _602  and  _605
REMARK                            x       y       z     vdW  Elec       q    Type
REMARK                         _______ _______ _______ _____ _____    ______ ____
ROOT
ATOM      1  O   HOH     1      -5.770  24.075  18.623  0.00  0.00    +0.000 OA
ENDROOT
TORSDOF 0
REMARK  Name = ../refined-set-2016/3uri/3uri_pocket.pdb
REMARK  252 active torsions:
REMARK  status: ('A' for Active; 'I' for Inactive)
REMARK    1  A    between atoms: _1  and  _3
REMARK    2  A    between atoms: _3  and  _4
REMARK    3  A    between atoms: _3  and  _6
REMARK    4  A    between atoms: _6  and  _7
REMARK    5  A    between atoms: _10  and  _12
REMARK    6  A    between atoms: _12  and  _13
REMARK    7  A    between atoms: _12  and  _15
REMARK    8  A    between atoms: _15  and  _16
REMARK    9  A    between atoms: _19  and  _21
REMARK   10  A    between atoms: _21  and  _22
REMARK   11  A    between atoms: _21  and  _24
REMARK   12  A    between atoms: _24  and  _25
REMARK   13  A    between atoms: _28  and  _30
REMARK   14  A    between atoms: _30  and  _31
REMARK   15  A    between atoms: _30  and  _33
REMARK   16  A    between atoms: _33  and  _34
REMARK   17  A    between atoms: _37  and  _39
REMARK   18  A    between atoms: _39  and  _40
REMARK   19  A    between atoms: _39  and  _42
REMARK   20  A    between atoms: _42  and  _43
REMARK   21  A    between atoms: _46  and  _48
REMARK   22  A    between atoms: _48  and  _49
REMARK   23  A    between atoms: _52  and  _54
REMARK   24  A    between atoms: _54  and  _55
REMARK   25  A    between atoms: _54  and  _57
REMARK   26  A    between atoms: _57  and  _58
REMARK   27  A    between atoms: _63  and  _64
REMARK   28  A    between atoms: _66  and  _68
REMARK   29  A    between atoms: _68  and  _69
REMARK   30  A    between atoms: _68  and  _71
REMARK   31  A    between atoms: _71  and  _72
REMARK   32  A    between atoms: _75  and  _77
REMARK   33  A    between atoms: _77  and  _78
REMARK   34  A    between atoms: _77  and  _80
REMARK   35  A    between atoms: _80  and  _81
REMARK   36  A    between atoms: _84  and  _86
REMARK   37  A    between atoms: _86  and  _87
REMARK   38  A    between atoms: _86  and  _89
REMARK   39  A    between atoms: _89  and  _90
REMARK   40  A    between atoms: _96  and  _98
REMARK   41  A    between atoms: _98  and  _99
REMARK   42  A    between atoms: _98  and  _101
REMARK   43  A    between atoms: _101  and  _102
REMARK   44  A    between atoms: _105  and  _107
REMARK   45  A    between atoms: _107  and  _108
REMARK   46  A    between atoms: _107  and  _110
REMARK   47  A    between atoms: _110  and  _111
REMARK   48  A    between atoms: _114  and  _116
REMARK   49  A    between atoms: _116  and  _117
REMARK   50  A    between atoms: _119  and  _121
REMARK   51  A    between atoms: _121  and  _122
REMARK   52  A    between atoms: _121  and  _124
REMARK   53  A    between atoms: _124  and  _125
REMARK   54  A    between atoms: _127  and  _129
REMARK   55  A    between atoms: _129  and  _130
REMARK   56  A    between atoms: _129  and  _132
REMARK   57  A    between atoms: _132  and  _133
REMARK   58  A    between atoms: _135  and  _137
REMARK   59  A    between atoms: _137  and  _138
REMARK   60  A    between atoms: _137  and  _140
REMARK   61  A    between atoms: _140  and  _141
REMARK   62  A    between atoms: _144  and  _146
REMARK   63  A    between atoms: _146  and  _147
REMARK   64  A    between atoms: _146  and  _149
REMARK   65  A    between atoms: _149  and  _150
REMARK   66  A    between atoms: _160  and  _162
REMARK   67  A    between atoms: _162  and  _163
REMARK   68  A    between atoms: _162  and  _165
REMARK   69  A    between atoms: _165  and  _166
REMARK   70  A    between atoms: _168  and  _170
REMARK   71  A    between atoms: _170  and  _171
REMARK   72  A    between atoms: _170  and  _173
REMARK   73  A    between atoms: _173  and  _174
REMARK   74  A    between atoms: _177  and  _179
REMARK   75  A    between atoms: _179  and  _180
REMARK   76  A    between atoms: _179  and  _182
REMARK   77  A    between atoms: _182  and  _183
REMARK   78  A    between atoms: _185  and  _187
REMARK   79  A    between atoms: _187  and  _188
REMARK   80  A    between atoms: _187  and  _190
REMARK   81  A    between atoms: _190  and  _191
REMARK   82  A    between atoms: _196  and  _197
REMARK   83  A    between atoms: _199  and  _201
REMARK   84  A    between atoms: _201  and  _202
REMARK   85  A    between atoms: _204  and  _206
REMARK   86  A    between atoms: _206  and  _207
REMARK   87  A    between atoms: _206  and  _209
REMARK   88  A    between atoms: _209  and  _210
REMARK   89  A    between atoms: _213  and  _215
REMARK   90  A    between atoms: _215  and  _216
REMARK   91  A    between atoms: _218  and  _220
REMARK   92  A    between atoms: _220  and  _221
REMARK   93  A    between atoms: _220  and  _223
REMARK   94  A    between atoms: _223  and  _224
REMARK   95  A    between atoms: _226  and  _228
REMARK   96  A    between atoms: _228  and  _229
REMARK   97  A    between atoms: _228  and  _231
REMARK   98  A    between atoms: _231  and  _232
REMARK   99  A    between atoms: _234  and  _236
REMARK  100  A    between atoms: _236  and  _237
REMARK  101  A    between atoms: _236  and  _239
REMARK  102  A    between atoms: _239  and  _240
REMARK  103  A    between atoms: _242  and  _244
REMARK  104  A    between atoms: _244  and  _245
REMARK  105  A    between atoms: _244  and  _247
REMARK  106  A    between atoms: _247  and  _248
REMARK  107  A    between atoms: _250  and  _252
REMARK  108  A    between atoms: _252  and  _253
REMARK  109  A    between atoms: _252  and  _255
REMARK  110  A    between atoms: _255  and  _256
REMARK  111  A    between atoms: _262  and  _264
REMARK  112  A    between atoms: _264  and  _265
REMARK  113  A    between atoms: _264  and  _267
REMARK  114  A    between atoms: _267  and  _268
REMARK  115  A    between atoms: _268  and  _269
REMARK  116  A    between atoms: _272  and  _274
REMARK  117  A    between atoms: _274  and  _275
REMARK  118  A    between atoms: _274  and  _277
REMARK  119  A    between atoms: _277  and  _278
REMARK  120  A    between atoms: _281  and  _283
REMARK  121  A    between atoms: _283  and  _284
REMARK  122  A    between atoms: _283  and  _286
REMARK  123  A    between atoms: _286  and  _287
REMARK  124  A    between atoms: _290  and  _292
REMARK  125  A    between atoms: _292  and  _293
REMARK  126  A    between atoms: _292  and  _295
REMARK  127  A    between atoms: _295  and  _296
REMARK  128  A    between atoms: _299  and  _301
REMARK  129  A    between atoms: _301  and  _302
REMARK  130  A    between atoms: _304  and  _306
REMARK  131  A    between atoms: _306  and  _307
REMARK  132  A    between atoms: _306  and  _309
REMARK  133  A    between atoms: _309  and  _310
REMARK  134  A    between atoms: _313  and  _315
REMARK  135  A    between atoms: _315  and  _316
REMARK  136  A    between atoms: _315  and  _318
REMARK  137  A    between atoms: _318  and  _319
REMARK  138  A    between atoms: _322  and  _324
REMARK  139  A    between atoms: _324  and  _325
REMARK  140  A    between atoms: _328  and  _330
REMARK  141  A    between atoms: _330  and  _331
REMARK  142  A    between atoms: _330  and  _333
REMARK  143  A    between atoms: _333  and  _334
REMARK  144  A    between atoms: _337  and  _339
REMARK  145  A    between atoms: _339  and  _340
REMARK  146  A    between atoms: _339  and  _342
REMARK  147  A    between atoms: _342  and  _343
REMARK  148  A    between atoms: _348  and  _350
REMARK  149  A    between atoms: _350  and  _351
REMARK  150  A    between atoms: _350  and  _353
REMARK  151  A    between atoms: _353  and  _354
REMARK  152  A    between atoms: _357  and  _359
REMARK  153  A    between atoms: _359  and  _360
REMARK  154  A    between atoms: _359  and  _362
REMARK  155  A    between atoms: _362  and  _363
REMARK  156  A    between atoms: _363  and  _364
REMARK  157  A    between atoms: _369  and  _371
REMARK  158  A    between atoms: _371  and  _372
REMARK  159  A    between atoms: _374  and  _376
REMARK  160  A    between atoms: _376  and  _377
REMARK  161  A    between atoms: _376  and  _379
REMARK  162  A    between atoms: _379  and  _380
REMARK  163  A    between atoms: _386  and  _388
REMARK  164  A    between atoms: _388  and  _389
REMARK  165  A    between atoms: _388  and  _391
REMARK  166  A    between atoms: _391  and  _392
REMARK  167  A    between atoms: _395  and  _397
REMARK  168  A    between atoms: _397  and  _398
REMARK  169  A    between atoms: _401  and  _403
REMARK  170  A    between atoms: _403  and  _404
REMARK  171  A    between atoms: _403  and  _406
REMARK  172  A    between atoms: _406  and  _407
REMARK  173  A    between atoms: _410  and  _412
REMARK  174  A    between atoms: _412  and  _413
REMARK  175  A    between atoms: _412  and  _415
REMARK  176  A    between atoms: _415  and  _416
REMARK  177  A    between atoms: _419  and  _421
REMARK  178  A    between atoms: _421  and  _422
REMARK  179  A    between atoms: _424  and  _426
REMARK  180  A    between atoms: _426  and  _427
REMARK  181  A    between atoms: _426  and  _429
REMARK  182  A    between atoms: _429  and  _430
REMARK  183  A    between atoms: _433  and  _435
REMARK  184  A    between atoms: _435  and  _436
REMARK  185  A    between atoms: _435  and  _438
REMARK  186  A    between atoms: _438  and  _439
REMARK  187  A    between atoms: _442  and  _444
REMARK  188  A    between atoms: _444  and  _445
REMARK  189  A    between atoms: _444  and  _447
REMARK  190  A    between atoms: _447  and  _448
REMARK  191  A    between atoms: _451  and  _453
REMARK  192  A    between atoms: _453  and  _454
REMARK  193  A    between atoms: _453  and  _456
REMARK  194  A    between atoms: _456  and  _457
REMARK  195  A    between atoms: _460  and  _462
REMARK  196  A    between atoms: _462  and  _463
REMARK  197  A    between atoms: _462  and  _465
REMARK  198  A    between atoms: _465  and  _466
REMARK  199  A    between atoms: _471  and  _472
REMARK  200  A    between atoms: _474  and  _476
REMARK  201  A    between atoms: _476  and  _477
REMARK  202  A    between atoms: _476  and  _479
REMARK  203  A    between atoms: _482  and  _484
REMARK  204  A    between atoms: _484  and  _485
REMARK  205  A    between atoms: _487  and  _489
REMARK  206  A    between atoms: _489  and  _490
REMARK  207  A    between atoms: _489  and  _492
REMARK  208  A    between atoms: _492  and  _493
REMARK  209  A    between atoms: _499  and  _501
REMARK  210  A    between atoms: _501  and  _502
REMARK  211  A    between atoms: _504  and  _506
REMARK  212  A    between atoms: _506  and  _507
REMARK  213  A    between atoms: _506  and  _509
REMARK  214  A    between atoms: _509  and  _510
REMARK  215  A    between atoms: _516  and  _518
REMARK  216  A    between atoms: _518  and  _519
REMARK  217  A    between atoms: _521  and  _523
REMARK  218  A    between atoms: _523  and  _524
REMARK  219  A    between atoms: _526  and  _528
REMARK  220  A    between atoms: _528  and  _529
REMARK  221  A    between atoms: _528  and  _531
REMARK  222  A    between atoms: _531  and  _532
REMARK  223  A    between atoms: _532  and  _533
REMARK  224  A    between atoms: _538  and  _540
REMARK  225  A    between atoms: _540  and  _541
REMARK  226  A    between atoms: _543  and  _545
REMARK  227  A    between atoms: _545  and  _546
REMARK  228  A    between atoms: _545  and  _548
REMARK  229  A    between atoms: _548  and  _549
REMARK  230  A    between atoms: _552  and  _554
REMARK  231  A    between atoms: _554  and  _555
REMARK  232  A    between atoms: _557  and  _559
REMARK  233  A    between atoms: _559  and  _560
REMARK  234  A    between atoms: _559  and  _562
REMARK  235  A    between atoms: _562  and  _563
REMARK  236  A    between atoms: _566  and  _568
REMARK  237  A    between atoms: _568  and  _569
REMARK  238  A    between atoms: _568  and  _571
REMARK  239  A    between atoms: _571  and  _572
REMARK  240  A    between atoms: _577  and  _579
REMARK  241  A    between atoms: _579  and  _580
REMARK  242  A    between atoms: _579  and  _582
REMARK  243  A    between atoms: _582  and  _583
REMARK  244  A    between atoms: _586  and  _588
REMARK  245  A    between atoms: _588  and  _589
REMARK  246  A    between atoms: _591  and  _593
REMARK  247  A    between atoms: _593  and  _594
REMARK  248  A    between atoms: _593  and  _596
REMARK  249  A    between atoms: _596  and  _597
REMARK  250  A    between atoms: _600  and  _602
REMARK  251  A    between atoms: _602  and  _603
REMARK  252  A    between atoms: _602  and  _605
REMARK                            x       y       z     vdW  Elec       q    Type
REMARK                         _______ _______ _______ _____ _____    ______ ____
ROOT
ATOM      1  O   HOH     1       1.692  34.043  24.558  0.00  0.00    +0.000 OA
ENDROOT
TORSDOF 0
REMARK  Name = ../refined-set-2016/3uri/3uri_pocket.pdb
REMARK  252 active torsions:
REMARK  status: ('A' for Active; 'I' for Inactive)
REMARK    1  A    between atoms: _1  and  _3
REMARK    2  A    between atoms: _3  and  _4
REMARK    3  A    between atoms: _3  and  _6
REMARK    4  A    between atoms: _6  and  _7
REMARK    5  A    between atoms: _10  and  _12
REMARK    6  A    between atoms: _12  and  _13
REMARK    7  A    between atoms: _12  and  _15
REMARK    8  A    between atoms: _15  and  _16
REMARK    9  A    between atoms: _19  and  _21
REMARK   10  A    between atoms: _21  and  _22
REMARK   11  A    between atoms: _21  and  _24
REMARK   12  A    between atoms: _24  and  _25
REMARK   13  A    between atoms: _28  and  _30
REMARK   14  A    between atoms: _30  and  _31
REMARK   15  A    between atoms: _30  and  _33
REMARK   16  A    between atoms: _33  and  _34
REMARK   17  A    between atoms: _37  and  _39
REMARK   18  A    between atoms: _39  and  _40
REMARK   19  A    between atoms: _39  and  _42
REMARK   20  A    between atoms: _42  and  _43
REMARK   21  A    between atoms: _46  and  _48
REMARK   22  A    between atoms: _48  and  _49
REMARK   23  A    between atoms: _52  and  _54
REMARK   24  A    between atoms: _54  and  _55
REMARK   25  A    between atoms: _54  and  _57
REMARK   26  A    between atoms: _57  and  _58
REMARK   27  A    between atoms: _63  and  _64
REMARK   28  A    between atoms: _66  and  _68
REMARK   29  A    between atoms: _68  and  _69
REMARK   30  A    between atoms: _68  and  _71
REMARK   31  A    between atoms: _71  and  _72
REMARK   32  A    between atoms: _75  and  _77
REMARK   33  A    between atoms: _77  and  _78
REMARK   34  A    between atoms: _77  and  _80
REMARK   35  A    between atoms: _80  and  _81
REMARK   36  A    between atoms: _84  and  _86
REMARK   37  A    between atoms: _86  and  _87
REMARK   38  A    between atoms: _86  and  _89
REMARK   39  A    between atoms: _89  and  _90
REMARK   40  A    between atoms: _96  and  _98
REMARK   41  A    between atoms: _98  and  _99
REMARK   42  A    between atoms: _98  and  _101
REMARK   43  A    between atoms: _101  and  _102
REMARK   44  A    between atoms: _105  and  _107
REMARK   45  A    between atoms: _107  and  _108
REMARK   46  A    between atoms: _107  and  _110
REMARK   47  A    between atoms: _110  and  _111
REMARK   48  A    between atoms: _114  and  _116
REMARK   49  A    between atoms: _116  and  _117
REMARK   50  A    between atoms: _119  and  _121
REMARK   51  A    between atoms: _121  and  _122
REMARK   52  A    between atoms: _121  and  _124
REMARK   53  A    between atoms: _124  and  _125
REMARK   54  A    between atoms: _127  and  _129
REMARK   55  A    between atoms: _129  and  _130
REMARK   56  A    between atoms: _129  and  _132
REMARK   57  A    between atoms: _132  and  _133
REMARK   58  A    between atoms: _135  and  _137
REMARK   59  A    between atoms: _137  and  _138
REMARK   60  A    between atoms: _137  and  _140
REMARK   61  A    between atoms: _140  and  _141
REMARK   62  A    between atoms: _144  and  _146
REMARK   63  A    between atoms: _146  and  _147
REMARK   64  A    between atoms: _146  and  _149
REMARK   65  A    between atoms: _149  and  _150
REMARK   66  A    between atoms: _160  and  _162
REMARK   67  A    between atoms: _162  and  _163
REMARK   68  A    between atoms: _162  and  _165
REMARK   69  A    between atoms: _165  and  _166
REMARK   70  A    between atoms: _168  and  _170
REMARK   71  A    between atoms: _170  and  _171
REMARK   72  A    between atoms: _170  and  _173
REMARK   73  A    between atoms: _173  and  _174
REMARK   74  A    between atoms: _177  and  _179
REMARK   75  A    between atoms: _179  and  _180
REMARK   76  A    between atoms: _179  and  _182
REMARK   77  A    between atoms: _182  and  _183
REMARK   78  A    between atoms: _185  and  _187
REMARK   79  A    between atoms: _187  and  _188
REMARK   80  A    between atoms: _187  and  _190
REMARK   81  A    between atoms: _190  and  _191
REMARK   82  A    between atoms: _196  and  _197
REMARK   83  A    between atoms: _199  and  _201
REMARK   84  A    between atoms: _201  and  _202
REMARK   85  A    between atoms: _204  and  _206
REMARK   86  A    between atoms: _206  and  _207
REMARK   87  A    between atoms: _206  and  _209
REMARK   88  A    between atoms: _209  and  _210
REMARK   89  A    between atoms: _213  and  _215
REMARK   90  A    between atoms: _215  and  _216
REMARK   91  A    between atoms: _218  and  _220
REMARK   92  A    between atoms: _220  and  _221
REMARK   93  A    between atoms: _220  and  _223
REMARK   94  A    between atoms: _223  and  _224
REMARK   95  A    between atoms: _226  and  _228
REMARK   96  A    between atoms: _228  and  _229
REMARK   97  A    between atoms: _228  and  _231
REMARK   98  A    between atoms: _231  and  _232
REMARK   99  A    between atoms: _234  and  _236
REMARK  100  A    between atoms: _236  and  _237
REMARK  101  A    between atoms: _236  and  _239
REMARK  102  A    between atoms: _239  and  _240
REMARK  103  A    between atoms: _242  and  _244
REMARK  104  A    between atoms: _244  and  _245
REMARK  105  A    between atoms: _244  and  _247
REMARK  106  A    between atoms: _247  and  _248
REMARK  107  A    between atoms: _250  and  _252
REMARK  108  A    between atoms: _252  and  _253
REMARK  109  A    between atoms: _252  and  _255
REMARK  110  A    between atoms: _255  and  _256
REMARK  111  A    between atoms: _262  and  _264
REMARK  112  A    between atoms: _264  and  _265
REMARK  113  A    between atoms: _264  and  _267
REMARK  114  A    between atoms: _267  and  _268
REMARK  115  A    between atoms: _268  and  _269
REMARK  116  A    between atoms: _272  and  _274
REMARK  117  A    between atoms: _274  and  _275
REMARK  118  A    between atoms: _274  and  _277
REMARK  119  A    between atoms: _277  and  _278
REMARK  120  A    between atoms: _281  and  _283
REMARK  121  A    between atoms: _283  and  _284
REMARK  122  A    between atoms: _283  and  _286
REMARK  123  A    between atoms: _286  and  _287
REMARK  124  A    between atoms: _290  and  _292
REMARK  125  A    between atoms: _292  and  _293
REMARK  126  A    between atoms: _292  and  _295
REMARK  127  A    between atoms: _295  and  _296
REMARK  128  A    between atoms: _299  and  _301
REMARK  129  A    between atoms: _301  and  _302
REMARK  130  A    between atoms: _304  and  _306
REMARK  131  A    between atoms: _306  and  _307
REMARK  132  A    between atoms: _306  and  _309
REMARK  133  A    between atoms: _309  and  _310
REMARK  134  A    between atoms: _313  and  _315
REMARK  135  A    between atoms: _315  and  _316
REMARK  136  A    between atoms: _315  and  _318
REMARK  137  A    between atoms: _318  and  _319
REMARK  138  A    between atoms: _322  and  _324
REMARK  139  A    between atoms: _324  and  _325
REMARK  140  A    between atoms: _328  and  _330
REMARK  141  A    between atoms: _330  and  _331
REMARK  142  A    between atoms: _330  and  _333
REMARK  143  A    between atoms: _333  and  _334
REMARK  144  A    between atoms: _337  and  _339
REMARK  145  A    between atoms: _339  and  _340
REMARK  146  A    between atoms: _339  and  _342
REMARK  147  A    between atoms: _342  and  _343
REMARK  148  A    between atoms: _348  and  _350
REMARK  149  A    between atoms: _350  and  _351
REMARK  150  A    between atoms: _350  and  _353
REMARK  151  A    between atoms: _353  and  _354
REMARK  152  A    between atoms: _357  and  _359
REMARK  153  A    between atoms: _359  and  _360
REMARK  154  A    between atoms: _359  and  _362
REMARK  155  A    between atoms: _362  and  _363
REMARK  156  A    between atoms: _363  and  _364
REMARK  157  A    between atoms: _369  and  _371
REMARK  158  A    between atoms: _371  and  _372
REMARK  159  A    between atoms: _374  and  _376
REMARK  160  A    between atoms: _376  and  _377
REMARK  161  A    between atoms: _376  and  _379
REMARK  162  A    between atoms: _379  and  _380
REMARK  163  A    between atoms: _386  and  _388
REMARK  164  A    between atoms: _388  and  _389
REMARK  165  A    between atoms: _388  and  _391
REMARK  166  A    between atoms: _391  and  _392
REMARK  167  A    between atoms: _395  and  _397
REMARK  168  A    between atoms: _397  and  _398
REMARK  169  A    between atoms: _401  and  _403
REMARK  170  A    between atoms: _403  and  _404
REMARK  171  A    between atoms: _403  and  _406
REMARK  172  A    between atoms: _406  and  _407
REMARK  173  A    between atoms: _410  and  _412
REMARK  174  A    between atoms: _412  and  _413
REMARK  175  A    between atoms: _412  and  _415
REMARK  176  A    between atoms: _415  and  _416
REMARK  177  A    between atoms: _419  and  _421
REMARK  178  A    between atoms: _421  and  _422
REMARK  179  A    between atoms: _424  and  _426
REMARK  180  A    between atoms: _426  and  _427
REMARK  181  A    between atoms: _426  and  _429
REMARK  182  A    between atoms: _429  and  _430
REMARK  183  A    between atoms: _433  and  _435
REMARK  184  A    between atoms: _435  and  _436
REMARK  185  A    between atoms: _435  and  _438
REMARK  186  A    between atoms: _438  and  _439
REMARK  187  A    between atoms: _442  and  _444
REMARK  188  A    between atoms: _444  and  _445
REMARK  189  A    between atoms: _444  and  _447
REMARK  190  A    between atoms: _447  and  _448
REMARK  191  A    between atoms: _451  and  _453
REMARK  192  A    between atoms: _453  and  _454
REMARK  193  A    between atoms: _453  and  _456
REMARK  194  A    between atoms: _456  and  _457
REMARK  195  A    between atoms: _460  and  _462
REMARK  196  A    between atoms: _462  and  _463
REMARK  197  A    between atoms: _462  and  _465
REMARK  198  A    between atoms: _465  and  _466
REMARK  199  A    between atoms: _471  and  _472
REMARK  200  A    between atoms: _474  and  _476
REMARK  201  A    between atoms: _476  and  _477
REMARK  202  A    between atoms: _476  and  _479
REMARK  203  A    between atoms: _482  and  _484
REMARK  204  A    between atoms: _484  and  _485
REMARK  205  A    between atoms: _487  and  _489
REMARK  206  A    between atoms: _489  and  _490
REMARK  207  A    between atoms: _489  and  _492
REMARK  208  A    between atoms: _492  and  _493
REMARK  209  A    between atoms: _499  and  _501
REMARK  210  A    between atoms: _501  and  _502
REMARK  211  A    between atoms: _504  and  _506
REMARK  212  A    between atoms: _506  and  _507
REMARK  213  A    between atoms: _506  and  _509
REMARK  214  A    between atoms: _509  and  _510
REMARK  215  A    between atoms: _516  and  _518
REMARK  216  A    between atoms: _518  and  _519
REMARK  217  A    between atoms: _521  and  _523
REMARK  218  A    between atoms: _523  and  _524
REMARK  219  A    between atoms: _526  and  _528
REMARK  220  A    between atoms: _528  and  _529
REMARK  221  A    between atoms: _528  and  _531
REMARK  222  A    between atoms: _531  and  _532
REMARK  223  A    between atoms: _532  and  _533
REMARK  224  A    between atoms: _538  and  _540
REMARK  225  A    between atoms: _540  and  _541
REMARK  226  A    between atoms: _543  and  _545
REMARK  227  A    between atoms: _545  and  _546
REMARK  228  A    between atoms: _545  and  _548
REMARK  229  A    between atoms: _548  and  _549
REMARK  230  A    between atoms: _552  and  _554
REMARK  231  A    between atoms: _554  and  _555
REMARK  232  A    between atoms: _557  and  _559
REMARK  233  A    between atoms: _559  and  _560
REMARK  234  A    between atoms: _559  and  _562
REMARK  235  A    between atoms: _562  and  _563
REMARK  236  A    between atoms: _566  and  _568
REMARK  237  A    between atoms: _568  and  _569
REMARK  238  A    between atoms: _568  and  _571
REMARK  239  A    between atoms: _571  and  _572
REMARK  240  A    between atoms: _577  and  _579
REMARK  241  A    between atoms: _579  and  _580
REMARK  242  A    between atoms: _579  and  _582
REMARK  243  A    between atoms: _582  and  _583
REMARK  244  A    between atoms: _586  and  _588
REMARK  245  A    between atoms: _588  and  _589
REMARK  246  A    between atoms: _591  and  _593
REMARK  247  A    between atoms: _593  and  _594
REMARK  248  A    between atoms: _593  and  _596
REMARK  249  A    between atoms: _596  and  _597
REMARK  250  A    between atoms: _600  and  _602
REMARK  251  A    between atoms: _602  and  _603
REMARK  252  A    between atoms: _602  and  _605
REMARK                            x       y       z     vdW  Elec       q    Type
REMARK                         _______ _______ _______ _____ _____    ______ ____
ROOT
ATOM      1  O   HOH     1       1.003  42.471   9.169  0.00  0.00    +0.000 OA
ENDROOT
TORSDOF 0
REMARK  Name = ../refined-set-2016/3uri/3uri_pocket.pdb
REMARK  252 active torsions:
REMARK  status: ('A' for Active; 'I' for Inactive)
REMARK    1  A    between atoms: _1  and  _3
REMARK    2  A    between atoms: _3  and  _4
REMARK    3  A    between atoms: _3  and  _6
REMARK    4  A    between atoms: _6  and  _7
REMARK    5  A    between atoms: _10  and  _12
REMARK    6  A    between atoms: _12  and  _13
REMARK    7  A    between atoms: _12  and  _15
REMARK    8  A    between atoms: _15  and  _16
REMARK    9  A    between atoms: _19  and  _21
REMARK   10  A    between atoms: _21  and  _22
REMARK   11  A    between atoms: _21  and  _24
REMARK   12  A    between atoms: _24  and  _25
REMARK   13  A    between atoms: _28  and  _30
REMARK   14  A    between atoms: _30  and  _31
REMARK   15  A    between atoms: _30  and  _33
REMARK   16  A    between atoms: _33  and  _34
REMARK   17  A    between atoms: _37  and  _39
REMARK   18  A    between atoms: _39  and  _40
REMARK   19  A    between atoms: _39  and  _42
REMARK   20  A    between atoms: _42  and  _43
REMARK   21  A    between atoms: _46  and  _48
REMARK   22  A    between atoms: _48  and  _49
REMARK   23  A    between atoms: _52  and  _54
REMARK   24  A    between atoms: _54  and  _55
REMARK   25  A    between atoms: _54  and  _57
REMARK   26  A    between atoms: _57  and  _58
REMARK   27  A    between atoms: _63  and  _64
REMARK   28  A    between atoms: _66  and  _68
REMARK   29  A    between atoms: _68  and  _69
REMARK   30  A    between atoms: _68  and  _71
REMARK   31  A    between atoms: _71  and  _72
REMARK   32  A    between atoms: _75  and  _77
REMARK   33  A    between atoms: _77  and  _78
REMARK   34  A    between atoms: _77  and  _80
REMARK   35  A    between atoms: _80  and  _81
REMARK   36  A    between atoms: _84  and  _86
REMARK   37  A    between atoms: _86  and  _87
REMARK   38  A    between atoms: _86  and  _89
REMARK   39  A    between atoms: _89  and  _90
REMARK   40  A    between atoms: _96  and  _98
REMARK   41  A    between atoms: _98  and  _99
REMARK   42  A    between atoms: _98  and  _101
REMARK   43  A    between atoms: _101  and  _102
REMARK   44  A    between atoms: _105  and  _107
REMARK   45  A    between atoms: _107  and  _108
REMARK   46  A    between atoms: _107  and  _110
REMARK   47  A    between atoms: _110  and  _111
REMARK   48  A    between atoms: _114  and  _116
REMARK   49  A    between atoms: _116  and  _117
REMARK   50  A    between atoms: _119  and  _121
REMARK   51  A    between atoms: _121  and  _122
REMARK   52  A    between atoms: _121  and  _124
REMARK   53  A    between atoms: _124  and  _125
REMARK   54  A    between atoms: _127  and  _129
REMARK   55  A    between atoms: _129  and  _130
REMARK   56  A    between atoms: _129  and  _132
REMARK   57  A    between atoms: _132  and  _133
REMARK   58  A    between atoms: _135  and  _137
REMARK   59  A    between atoms: _137  and  _138
REMARK   60  A    between atoms: _137  and  _140
REMARK   61  A    between atoms: _140  and  _141
REMARK   62  A    between atoms: _144  and  _146
REMARK   63  A    between atoms: _146  and  _147
REMARK   64  A    between atoms: _146  and  _149
REMARK   65  A    between atoms: _149  and  _150
REMARK   66  A    between atoms: _160  and  _162
REMARK   67  A    between atoms: _162  and  _163
REMARK   68  A    between atoms: _162  and  _165
REMARK   69  A    between atoms: _165  and  _166
REMARK   70  A    between atoms: _168  and  _170
REMARK   71  A    between atoms: _170  and  _171
REMARK   72  A    between atoms: _170  and  _173
REMARK   73  A    between atoms: _173  and  _174
REMARK   74  A    between atoms: _177  and  _179
REMARK   75  A    between atoms: _179  and  _180
REMARK   76  A    between atoms: _179  and  _182
REMARK   77  A    between atoms: _182  and  _183
REMARK   78  A    between atoms: _185  and  _187
REMARK   79  A    between atoms: _187  and  _188
REMARK   80  A    between atoms: _187  and  _190
REMARK   81  A    between atoms: _190  and  _191
REMARK   82  A    between atoms: _196  and  _197
REMARK   83  A    between atoms: _199  and  _201
REMARK   84  A    between atoms: _201  and  _202
REMARK   85  A    between atoms: _204  and  _206
REMARK   86  A    between atoms: _206  and  _207
REMARK   87  A    between atoms: _206  and  _209
REMARK   88  A    between atoms: _209  and  _210
REMARK   89  A    between atoms: _213  and  _215
REMARK   90  A    between atoms: _215  and  _216
REMARK   91  A    between atoms: _218  and  _220
REMARK   92  A    between atoms: _220  and  _221
REMARK   93  A    between atoms: _220  and  _223
REMARK   94  A    between atoms: _223  and  _224
REMARK   95  A    between atoms: _226  and  _228
REMARK   96  A    between atoms: _228  and  _229
REMARK   97  A    between atoms: _228  and  _231
REMARK   98  A    between atoms: _231  and  _232
REMARK   99  A    between atoms: _234  and  _236
REMARK  100  A    between atoms: _236  and  _237
REMARK  101  A    between atoms: _236  and  _239
REMARK  102  A    between atoms: _239  and  _240
REMARK  103  A    between atoms: _242  and  _244
REMARK  104  A    between atoms: _244  and  _245
REMARK  105  A    between atoms: _244  and  _247
REMARK  106  A    between atoms: _247  and  _248
REMARK  107  A    between atoms: _250  and  _252
REMARK  108  A    between atoms: _252  and  _253
REMARK  109  A    between atoms: _252  and  _255
REMARK  110  A    between atoms: _255  and  _256
REMARK  111  A    between atoms: _262  and  _264
REMARK  112  A    between atoms: _264  and  _265
REMARK  113  A    between atoms: _264  and  _267
REMARK  114  A    between atoms: _267  and  _268
REMARK  115  A    between atoms: _268  and  _269
REMARK  116  A    between atoms: _272  and  _274
REMARK  117  A    between atoms: _274  and  _275
REMARK  118  A    between atoms: _274  and  _277
REMARK  119  A    between atoms: _277  and  _278
REMARK  120  A    between atoms: _281  and  _283
REMARK  121  A    between atoms: _283  and  _284
REMARK  122  A    between atoms: _283  and  _286
REMARK  123  A    between atoms: _286  and  _287
REMARK  124  A    between atoms: _290  and  _292
REMARK  125  A    between atoms: _292  and  _293
REMARK  126  A    between atoms: _292  and  _295
REMARK  127  A    between atoms: _295  and  _296
REMARK  128  A    between atoms: _299  and  _301
REMARK  129  A    between atoms: _301  and  _302
REMARK  130  A    between atoms: _304  and  _306
REMARK  131  A    between atoms: _306  and  _307
REMARK  132  A    between atoms: _306  and  _309
REMARK  133  A    between atoms: _309  and  _310
REMARK  134  A    between atoms: _313  and  _315
REMARK  135  A    between atoms: _315  and  _316
REMARK  136  A    between atoms: _315  and  _318
REMARK  137  A    between atoms: _318  and  _319
REMARK  138  A    between atoms: _322  and  _324
REMARK  139  A    between atoms: _324  and  _325
REMARK  140  A    between atoms: _328  and  _330
REMARK  141  A    between atoms: _330  and  _331
REMARK  142  A    between atoms: _330  and  _333
REMARK  143  A    between atoms: _333  and  _334
REMARK  144  A    between atoms: _337  and  _339
REMARK  145  A    between atoms: _339  and  _340
REMARK  146  A    between atoms: _339  and  _342
REMARK  147  A    between atoms: _342  and  _343
REMARK  148  A    between atoms: _348  and  _350
REMARK  149  A    between atoms: _350  and  _351
REMARK  150  A    between atoms: _350  and  _353
REMARK  151  A    between atoms: _353  and  _354
REMARK  152  A    between atoms: _357  and  _359
REMARK  153  A    between atoms: _359  and  _360
REMARK  154  A    between atoms: _359  and  _362
REMARK  155  A    between atoms: _362  and  _363
REMARK  156  A    between atoms: _363  and  _364
REMARK  157  A    between atoms: _369  and  _371
REMARK  158  A    between atoms: _371  and  _372
REMARK  159  A    between atoms: _374  and  _376
REMARK  160  A    between atoms: _376  and  _377
REMARK  161  A    between atoms: _376  and  _379
REMARK  162  A    between atoms: _379  and  _380
REMARK  163  A    between atoms: _386  and  _388
REMARK  164  A    between atoms: _388  and  _389
REMARK  165  A    between atoms: _388  and  _391
REMARK  166  A    between atoms: _391  and  _392
REMARK  167  A    between atoms: _395  and  _397
REMARK  168  A    between atoms: _397  and  _398
REMARK  169  A    between atoms: _401  and  _403
REMARK  170  A    between atoms: _403  and  _404
REMARK  171  A    between atoms: _403  and  _406
REMARK  172  A    between atoms: _406  and  _407
REMARK  173  A    between atoms: _410  and  _412
REMARK  174  A    between atoms: _412  and  _413
REMARK  175  A    between atoms: _412  and  _415
REMARK  176  A    between atoms: _415  and  _416
REMARK  177  A    between atoms: _419  and  _421
REMARK  178  A    between atoms: _421  and  _422
REMARK  179  A    between atoms: _424  and  _426
REMARK  180  A    between atoms: _426  and  _427
REMARK  181  A    between atoms: _426  and  _429
REMARK  182  A    between atoms: _429  and  _430
REMARK  183  A    between atoms: _433  and  _435
REMARK  184  A    between atoms: _435  and  _436
REMARK  185  A    between atoms: _435  and  _438
REMARK  186  A    between atoms: _438  and  _439
REMARK  187  A    between atoms: _442  and  _444
REMARK  188  A    between atoms: _444  and  _445
REMARK  189  A    between atoms: _444  and  _447
REMARK  190  A    between atoms: _447  and  _448
REMARK  191  A    between atoms: _451  and  _453
REMARK  192  A    between atoms: _453  and  _454
REMARK  193  A    between atoms: _453  and  _456
REMARK  194  A    between atoms: _456  and  _457
REMARK  195  A    between atoms: _460  and  _462
REMARK  196  A    between atoms: _462  and  _463
REMARK  197  A    between atoms: _462  and  _465
REMARK  198  A    between atoms: _465  and  _466
REMARK  199  A    between atoms: _471  and  _472
REMARK  200  A    between atoms: _474  and  _476
REMARK  201  A    between atoms: _476  and  _477
REMARK  202  A    between atoms: _476  and  _479
REMARK  203  A    between atoms: _482  and  _484
REMARK  204  A    between atoms: _484  and  _485
REMARK  205  A    between atoms: _487  and  _489
REMARK  206  A    between atoms: _489  and  _490
REMARK  207  A    between atoms: _489  and  _492
REMARK  208  A    between atoms: _492  and  _493
REMARK  209  A    between atoms: _499  and  _501
REMARK  210  A    between atoms: _501  and  _502
REMARK  211  A    between atoms: _504  and  _506
REMARK  212  A    between atoms: _506  and  _507
REMARK  213  A    between atoms: _506  and  _509
REMARK  214  A    between atoms: _509  and  _510
REMARK  215  A    between atoms: _516  and  _518
REMARK  216  A    between atoms: _518  and  _519
REMARK  217  A    between atoms: _521  and  _523
REMARK  218  A    between atoms: _523  and  _524
REMARK  219  A    between atoms: _526  and  _528
REMARK  220  A    between atoms: _528  and  _529
REMARK  221  A    between atoms: _528  and  _531
REMARK  222  A    between atoms: _531  and  _532
REMARK  223  A    between atoms: _532  and  _533
REMARK  224  A    between atoms: _538  and  _540
REMARK  225  A    between atoms: _540  and  _541
REMARK  226  A    between atoms: _543  and  _545
REMARK  227  A    between atoms: _545  and  _546
REMARK  228  A    between atoms: _545  and  _548
REMARK  229  A    between atoms: _548  and  _549
REMARK  230  A    between atoms: _552  and  _554
REMARK  231  A    between atoms: _554  and  _555
REMARK  232  A    between atoms: _557  and  _559
REMARK  233  A    between atoms: _559  and  _560
REMARK  234  A    between atoms: _559  and  _562
REMARK  235  A    between atoms: _562  and  _563
REMARK  236  A    between atoms: _566  and  _568
REMARK  237  A    between atoms: _568  and  _569
REMARK  238  A    between atoms: _568  and  _571
REMARK  239  A    between atoms: _571  and  _572
REMARK  240  A    between atoms: _577  and  _579
REMARK  241  A    between atoms: _579  and  _580
REMARK  242  A    between atoms: _579  and  _582
REMARK  243  A    between atoms: _582  and  _583
REMARK  244  A    between atoms: _586  and  _588
REMARK  245  A    between atoms: _588  and  _589
REMARK  246  A    between atoms: _591  and  _593
REMARK  247  A    between atoms: _593  and  _594
REMARK  248  A    between atoms: _593  and  _596
REMARK  249  A    between atoms: _596  and  _597
REMARK  250  A    between atoms: _600  and  _602
REMARK  251  A    between atoms: _602  and  _603
REMARK  252  A    between atoms: _602  and  _605
REMARK                            x       y       z     vdW  Elec       q    Type
REMARK                         _______ _______ _______ _____ _____    ______ ____
ROOT
ATOM      1  O   HOH     1      -9.580  34.286  17.329  0.00  0.00    +0.000 OA
ENDROOT
TORSDOF 0
REMARK  Name = ../refined-set-2016/3uri/3uri_pocket.pdb
REMARK  252 active torsions:
REMARK  status: ('A' for Active; 'I' for Inactive)
REMARK    1  A    between atoms: _1  and  _3
REMARK    2  A    between atoms: _3  and  _4
REMARK    3  A    between atoms: _3  and  _6
REMARK    4  A    between atoms: _6  and  _7
REMARK    5  A    between atoms: _10  and  _12
REMARK    6  A    between atoms: _12  and  _13
REMARK    7  A    between atoms: _12  and  _15
REMARK    8  A    between atoms: _15  and  _16
REMARK    9  A    between atoms: _19  and  _21
REMARK   10  A    between atoms: _21  and  _22
REMARK   11  A    between atoms: _21  and  _24
REMARK   12  A    between atoms: _24  and  _25
REMARK   13  A    between atoms: _28  and  _30
REMARK   14  A    between atoms: _30  and  _31
REMARK   15  A    between atoms: _30  and  _33
REMARK   16  A    between atoms: _33  and  _34
REMARK   17  A    between atoms: _37  and  _39
REMARK   18  A    between atoms: _39  and  _40
REMARK   19  A    between atoms: _39  and  _42
REMARK   20  A    between atoms: _42  and  _43
REMARK   21  A    between atoms: _46  and  _48
REMARK   22  A    between atoms: _48  and  _49
REMARK   23  A    between atoms: _52  and  _54
REMARK   24  A    between atoms: _54  and  _55
REMARK   25  A    between atoms: _54  and  _57
REMARK   26  A    between atoms: _57  and  _58
REMARK   27  A    between atoms: _63  and  _64
REMARK   28  A    between atoms: _66  and  _68
REMARK   29  A    between atoms: _68  and  _69
REMARK   30  A    between atoms: _68  and  _71
REMARK   31  A    between atoms: _71  and  _72
REMARK   32  A    between atoms: _75  and  _77
REMARK   33  A    between atoms: _77  and  _78
REMARK   34  A    between atoms: _77  and  _80
REMARK   35  A    between atoms: _80  and  _81
REMARK   36  A    between atoms: _84  and  _86
REMARK   37  A    between atoms: _86  and  _87
REMARK   38  A    between atoms: _86  and  _89
REMARK   39  A    between atoms: _89  and  _90
REMARK   40  A    between atoms: _96  and  _98
REMARK   41  A    between atoms: _98  and  _99
REMARK   42  A    between atoms: _98  and  _101
REMARK   43  A    between atoms: _101  and  _102
REMARK   44  A    between atoms: _105  and  _107
REMARK   45  A    between atoms: _107  and  _108
REMARK   46  A    between atoms: _107  and  _110
REMARK   47  A    between atoms: _110  and  _111
REMARK   48  A    between atoms: _114  and  _116
REMARK   49  A    between atoms: _116  and  _117
REMARK   50  A    between atoms: _119  and  _121
REMARK   51  A    between atoms: _121  and  _122
REMARK   52  A    between atoms: _121  and  _124
REMARK   53  A    between atoms: _124  and  _125
REMARK   54  A    between atoms: _127  and  _129
REMARK   55  A    between atoms: _129  and  _130
REMARK   56  A    between atoms: _129  and  _132
REMARK   57  A    between atoms: _132  and  _133
REMARK   58  A    between atoms: _135  and  _137
REMARK   59  A    between atoms: _137  and  _138
REMARK   60  A    between atoms: _137  and  _140
REMARK   61  A    between atoms: _140  and  _141
REMARK   62  A    between atoms: _144  and  _146
REMARK   63  A    between atoms: _146  and  _147
REMARK   64  A    between atoms: _146  and  _149
REMARK   65  A    between atoms: _149  and  _150
REMARK   66  A    between atoms: _160  and  _162
REMARK   67  A    between atoms: _162  and  _163
REMARK   68  A    between atoms: _162  and  _165
REMARK   69  A    between atoms: _165  and  _166
REMARK   70  A    between atoms: _168  and  _170
REMARK   71  A    between atoms: _170  and  _171
REMARK   72  A    between atoms: _170  and  _173
REMARK   73  A    between atoms: _173  and  _174
REMARK   74  A    between atoms: _177  and  _179
REMARK   75  A    between atoms: _179  and  _180
REMARK   76  A    between atoms: _179  and  _182
REMARK   77  A    between atoms: _182  and  _183
REMARK   78  A    between atoms: _185  and  _187
REMARK   79  A    between atoms: _187  and  _188
REMARK   80  A    between atoms: _187  and  _190
REMARK   81  A    between atoms: _190  and  _191
REMARK   82  A    between atoms: _196  and  _197
REMARK   83  A    between atoms: _199  and  _201
REMARK   84  A    between atoms: _201  and  _202
REMARK   85  A    between atoms: _204  and  _206
REMARK   86  A    between atoms: _206  and  _207
REMARK   87  A    between atoms: _206  and  _209
REMARK   88  A    between atoms: _209  and  _210
REMARK   89  A    between atoms: _213  and  _215
REMARK   90  A    between atoms: _215  and  _216
REMARK   91  A    between atoms: _218  and  _220
REMARK   92  A    between atoms: _220  and  _221
REMARK   93  A    between atoms: _220  and  _223
REMARK   94  A    between atoms: _223  and  _224
REMARK   95  A    between atoms: _226  and  _228
REMARK   96  A    between atoms: _228  and  _229
REMARK   97  A    between atoms: _228  and  _231
REMARK   98  A    between atoms: _231  and  _232
REMARK   99  A    between atoms: _234  and  _236
REMARK  100  A    between atoms: _236  and  _237
REMARK  101  A    between atoms: _236  and  _239
REMARK  102  A    between atoms: _239  and  _240
REMARK  103  A    between atoms: _242  and  _244
REMARK  104  A    between atoms: _244  and  _245
REMARK  105  A    between atoms: _244  and  _247
REMARK  106  A    between atoms: _247  and  _248
REMARK  107  A    between atoms: _250  and  _252
REMARK  108  A    between atoms: _252  and  _253
REMARK  109  A    between atoms: _252  and  _255
REMARK  110  A    between atoms: _255  and  _256
REMARK  111  A    between atoms: _262  and  _264
REMARK  112  A    between atoms: _264  and  _265
REMARK  113  A    between atoms: _264  and  _267
REMARK  114  A    between atoms: _267  and  _268
REMARK  115  A    between atoms: _268  and  _269
REMARK  116  A    between atoms: _272  and  _274
REMARK  117  A    between atoms: _274  and  _275
REMARK  118  A    between atoms: _274  and  _277
REMARK  119  A    between atoms: _277  and  _278
REMARK  120  A    between atoms: _281  and  _283
REMARK  121  A    between atoms: _283  and  _284
REMARK  122  A    between atoms: _283  and  _286
REMARK  123  A    between atoms: _286  and  _287
REMARK  124  A    between atoms: _290  and  _292
REMARK  125  A    between atoms: _292  and  _293
REMARK  126  A    between atoms: _292  and  _295
REMARK  127  A    between atoms: _295  and  _296
REMARK  128  A    between atoms: _299  and  _301
REMARK  129  A    between atoms: _301  and  _302
REMARK  130  A    between atoms: _304  and  _306
REMARK  131  A    between atoms: _306  and  _307
REMARK  132  A    between atoms: _306  and  _309
REMARK  133  A    between atoms: _309  and  _310
REMARK  134  A    between atoms: _313  and  _315
REMARK  135  A    between atoms: _315  and  _316
REMARK  136  A    between atoms: _315  and  _318
REMARK  137  A    between atoms: _318  and  _319
REMARK  138  A    between atoms: _322  and  _324
REMARK  139  A    between atoms: _324  and  _325
REMARK  140  A    between atoms: _328  and  _330
REMARK  141  A    between atoms: _330  and  _331
REMARK  142  A    between atoms: _330  and  _333
REMARK  143  A    between atoms: _333  and  _334
REMARK  144  A    between atoms: _337  and  _339
REMARK  145  A    between atoms: _339  and  _340
REMARK  146  A    between atoms: _339  and  _342
REMARK  147  A    between atoms: _342  and  _343
REMARK  148  A    between atoms: _348  and  _350
REMARK  149  A    between atoms: _350  and  _351
REMARK  150  A    between atoms: _350  and  _353
REMARK  151  A    between atoms: _353  and  _354
REMARK  152  A    between atoms: _357  and  _359
REMARK  153  A    between atoms: _359  and  _360
REMARK  154  A    between atoms: _359  and  _362
REMARK  155  A    between atoms: _362  and  _363
REMARK  156  A    between atoms: _363  and  _364
REMARK  157  A    between atoms: _369  and  _371
REMARK  158  A    between atoms: _371  and  _372
REMARK  159  A    between atoms: _374  and  _376
REMARK  160  A    between atoms: _376  and  _377
REMARK  161  A    between atoms: _376  and  _379
REMARK  162  A    between atoms: _379  and  _380
REMARK  163  A    between atoms: _386  and  _388
REMARK  164  A    between atoms: _388  and  _389
REMARK  165  A    between atoms: _388  and  _391
REMARK  166  A    between atoms: _391  and  _392
REMARK  167  A    between atoms: _395  and  _397
REMARK  168  A    between atoms: _397  and  _398
REMARK  169  A    between atoms: _401  and  _403
REMARK  170  A    between atoms: _403  and  _404
REMARK  171  A    between atoms: _403  and  _406
REMARK  172  A    between atoms: _406  and  _407
REMARK  173  A    between atoms: _410  and  _412
REMARK  174  A    between atoms: _412  and  _413
REMARK  175  A    between atoms: _412  and  _415
REMARK  176  A    between atoms: _415  and  _416
REMARK  177  A    between atoms: _419  and  _421
REMARK  178  A    between atoms: _421  and  _422
REMARK  179  A    between atoms: _424  and  _426
REMARK  180  A    between atoms: _426  and  _427
REMARK  181  A    between atoms: _426  and  _429
REMARK  182  A    between atoms: _429  and  _430
REMARK  183  A    between atoms: _433  and  _435
REMARK  184  A    between atoms: _435  and  _436
REMARK  185  A    between atoms: _435  and  _438
REMARK  186  A    between atoms: _438  and  _439
REMARK  187  A    between atoms: _442  and  _444
REMARK  188  A    between atoms: _444  and  _445
REMARK  189  A    between atoms: _444  and  _447
REMARK  190  A    between atoms: _447  and  _448
REMARK  191  A    between atoms: _451  and  _453
REMARK  192  A    between atoms: _453  and  _454
REMARK  193  A    between atoms: _453  and  _456
REMARK  194  A    between atoms: _456  and  _457
REMARK  195  A    between atoms: _460  and  _462
REMARK  196  A    between atoms: _462  and  _463
REMARK  197  A    between atoms: _462  and  _465
REMARK  198  A    between atoms: _465  and  _466
REMARK  199  A    between atoms: _471  and  _472
REMARK  200  A    between atoms: _474  and  _476
REMARK  201  A    between atoms: _476  and  _477
REMARK  202  A    between atoms: _476  and  _479
REMARK  203  A    between atoms: _482  and  _484
REMARK  204  A    between atoms: _484  and  _485
REMARK  205  A    between atoms: _487  and  _489
REMARK  206  A    between atoms: _489  and  _490
REMARK  207  A    between atoms: _489  and  _492
REMARK  208  A    between atoms: _492  and  _493
REMARK  209  A    between atoms: _499  and  _501
REMARK  210  A    between atoms: _501  and  _502
REMARK  211  A    between atoms: _504  and  _506
REMARK  212  A    between atoms: _506  and  _507
REMARK  213  A    between atoms: _506  and  _509
REMARK  214  A    between atoms: _509  and  _510
REMARK  215  A    between atoms: _516  and  _518
REMARK  216  A    between atoms: _518  and  _519
REMARK  217  A    between atoms: _521  and  _523
REMARK  218  A    between atoms: _523  and  _524
REMARK  219  A    between atoms: _526  and  _528
REMARK  220  A    between atoms: _528  and  _529
REMARK  221  A    between atoms: _528  and  _531
REMARK  222  A    between atoms: _531  and  _532
REMARK  223  A    between atoms: _532  and  _533
REMARK  224  A    between atoms: _538  and  _540
REMARK  225  A    between atoms: _540  and  _541
REMARK  226  A    between atoms: _543  and  _545
REMARK  227  A    between atoms: _545  and  _546
REMARK  228  A    between atoms: _545  and  _548
REMARK  229  A    between atoms: _548  and  _549
REMARK  230  A    between atoms: _552  and  _554
REMARK  231  A    between atoms: _554  and  _555
REMARK  232  A    between atoms: _557  and  _559
REMARK  233  A    between atoms: _559  and  _560
REMARK  234  A    between atoms: _559  and  _562
REMARK  235  A    between atoms: _562  and  _563
REMARK  236  A    between atoms: _566  and  _568
REMARK  237  A    between atoms: _568  and  _569
REMARK  238  A    between atoms: _568  and  _571
REMARK  239  A    between atoms: _571  and  _572
REMARK  240  A    between atoms: _577  and  _579
REMARK  241  A    between atoms: _579  and  _580
REMARK  242  A    between atoms: _579  and  _582
REMARK  243  A    between atoms: _582  and  _583
REMARK  244  A    between atoms: _586  and  _588
REMARK  245  A    between atoms: _588  and  _589
REMARK  246  A    between atoms: _591  and  _593
REMARK  247  A    between atoms: _593  and  _594
REMARK  248  A    between atoms: _593  and  _596
REMARK  249  A    between atoms: _596  and  _597
REMARK  250  A    between atoms: _600  and  _602
REMARK  251  A    between atoms: _602  and  _603
REMARK  252  A    between atoms: _602  and  _605
REMARK                            x       y       z     vdW  Elec       q    Type
REMARK                         _______ _______ _______ _____ _____    ______ ____
ROOT
ATOM      1  O   HOH     1      -8.146  36.243  14.582  0.00  0.00    +0.000 OA
ENDROOT
TORSDOF 0
REMARK  Name = ../refined-set-2016/3uri/3uri_pocket.pdb
REMARK  252 active torsions:
REMARK  status: ('A' for Active; 'I' for Inactive)
REMARK    1  A    between atoms: _1  and  _3
REMARK    2  A    between atoms: _3  and  _4
REMARK    3  A    between atoms: _3  and  _6
REMARK    4  A    between atoms: _6  and  _7
REMARK    5  A    between atoms: _10  and  _12
REMARK    6  A    between atoms: _12  and  _13
REMARK    7  A    between atoms: _12  and  _15
REMARK    8  A    between atoms: _15  and  _16
REMARK    9  A    between atoms: _19  and  _21
REMARK   10  A    between atoms: _21  and  _22
REMARK   11  A    between atoms: _21  and  _24
REMARK   12  A    between atoms: _24  and  _25
REMARK   13  A    between atoms: _28  and  _30
REMARK   14  A    between atoms: _30  and  _31
REMARK   15  A    between atoms: _30  and  _33
REMARK   16  A    between atoms: _33  and  _34
REMARK   17  A    between atoms: _37  and  _39
REMARK   18  A    between atoms: _39  and  _40
REMARK   19  A    between atoms: _39  and  _42
REMARK   20  A    between atoms: _42  and  _43
REMARK   21  A    between atoms: _46  and  _48
REMARK   22  A    between atoms: _48  and  _49
REMARK   23  A    between atoms: _52  and  _54
REMARK   24  A    between atoms: _54  and  _55
REMARK   25  A    between atoms: _54  and  _57
REMARK   26  A    between atoms: _57  and  _58
REMARK   27  A    between atoms: _63  and  _64
REMARK   28  A    between atoms: _66  and  _68
REMARK   29  A    between atoms: _68  and  _69
REMARK   30  A    between atoms: _68  and  _71
REMARK   31  A    between atoms: _71  and  _72
REMARK   32  A    between atoms: _75  and  _77
REMARK   33  A    between atoms: _77  and  _78
REMARK   34  A    between atoms: _77  and  _80
REMARK   35  A    between atoms: _80  and  _81
REMARK   36  A    between atoms: _84  and  _86
REMARK   37  A    between atoms: _86  and  _87
REMARK   38  A    between atoms: _86  and  _89
REMARK   39  A    between atoms: _89  and  _90
REMARK   40  A    between atoms: _96  and  _98
REMARK   41  A    between atoms: _98  and  _99
REMARK   42  A    between atoms: _98  and  _101
REMARK   43  A    between atoms: _101  and  _102
REMARK   44  A    between atoms: _105  and  _107
REMARK   45  A    between atoms: _107  and  _108
REMARK   46  A    between atoms: _107  and  _110
REMARK   47  A    between atoms: _110  and  _111
REMARK   48  A    between atoms: _114  and  _116
REMARK   49  A    between atoms: _116  and  _117
REMARK   50  A    between atoms: _119  and  _121
REMARK   51  A    between atoms: _121  and  _122
REMARK   52  A    between atoms: _121  and  _124
REMARK   53  A    between atoms: _124  and  _125
REMARK   54  A    between atoms: _127  and  _129
REMARK   55  A    between atoms: _129  and  _130
REMARK   56  A    between atoms: _129  and  _132
REMARK   57  A    between atoms: _132  and  _133
REMARK   58  A    between atoms: _135  and  _137
REMARK   59  A    between atoms: _137  and  _138
REMARK   60  A    between atoms: _137  and  _140
REMARK   61  A    between atoms: _140  and  _141
REMARK   62  A    between atoms: _144  and  _146
REMARK   63  A    between atoms: _146  and  _147
REMARK   64  A    between atoms: _146  and  _149
REMARK   65  A    between atoms: _149  and  _150
REMARK   66  A    between atoms: _160  and  _162
REMARK   67  A    between atoms: _162  and  _163
REMARK   68  A    between atoms: _162  and  _165
REMARK   69  A    between atoms: _165  and  _166
REMARK   70  A    between atoms: _168  and  _170
REMARK   71  A    between atoms: _170  and  _171
REMARK   72  A    between atoms: _170  and  _173
REMARK   73  A    between atoms: _173  and  _174
REMARK   74  A    between atoms: _177  and  _179
REMARK   75  A    between atoms: _179  and  _180
REMARK   76  A    between atoms: _179  and  _182
REMARK   77  A    between atoms: _182  and  _183
REMARK   78  A    between atoms: _185  and  _187
REMARK   79  A    between atoms: _187  and  _188
REMARK   80  A    between atoms: _187  and  _190
REMARK   81  A    between atoms: _190  and  _191
REMARK   82  A    between atoms: _196  and  _197
REMARK   83  A    between atoms: _199  and  _201
REMARK   84  A    between atoms: _201  and  _202
REMARK   85  A    between atoms: _204  and  _206
REMARK   86  A    between atoms: _206  and  _207
REMARK   87  A    between atoms: _206  and  _209
REMARK   88  A    between atoms: _209  and  _210
REMARK   89  A    between atoms: _213  and  _215
REMARK   90  A    between atoms: _215  and  _216
REMARK   91  A    between atoms: _218  and  _220
REMARK   92  A    between atoms: _220  and  _221
REMARK   93  A    between atoms: _220  and  _223
REMARK   94  A    between atoms: _223  and  _224
REMARK   95  A    between atoms: _226  and  _228
REMARK   96  A    between atoms: _228  and  _229
REMARK   97  A    between atoms: _228  and  _231
REMARK   98  A    between atoms: _231  and  _232
REMARK   99  A    between atoms: _234  and  _236
REMARK  100  A    between atoms: _236  and  _237
REMARK  101  A    between atoms: _236  and  _239
REMARK  102  A    between atoms: _239  and  _240
REMARK  103  A    between atoms: _242  and  _244
REMARK  104  A    between atoms: _244  and  _245
REMARK  105  A    between atoms: _244  and  _247
REMARK  106  A    between atoms: _247  and  _248
REMARK  107  A    between atoms: _250  and  _252
REMARK  108  A    between atoms: _252  and  _253
REMARK  109  A    between atoms: _252  and  _255
REMARK  110  A    between atoms: _255  and  _256
REMARK  111  A    between atoms: _262  and  _264
REMARK  112  A    between atoms: _264  and  _265
REMARK  113  A    between atoms: _264  and  _267
REMARK  114  A    between atoms: _267  and  _268
REMARK  115  A    between atoms: _268  and  _269
REMARK  116  A    between atoms: _272  and  _274
REMARK  117  A    between atoms: _274  and  _275
REMARK  118  A    between atoms: _274  and  _277
REMARK  119  A    between atoms: _277  and  _278
REMARK  120  A    between atoms: _281  and  _283
REMARK  121  A    between atoms: _283  and  _284
REMARK  122  A    between atoms: _283  and  _286
REMARK  123  A    between atoms: _286  and  _287
REMARK  124  A    between atoms: _290  and  _292
REMARK  125  A    between atoms: _292  and  _293
REMARK  126  A    between atoms: _292  and  _295
REMARK  127  A    between atoms: _295  and  _296
REMARK  128  A    between atoms: _299  and  _301
REMARK  129  A    between atoms: _301  and  _302
REMARK  130  A    between atoms: _304  and  _306
REMARK  131  A    between atoms: _306  and  _307
REMARK  132  A    between atoms: _306  and  _309
REMARK  133  A    between atoms: _309  and  _310
REMARK  134  A    between atoms: _313  and  _315
REMARK  135  A    between atoms: _315  and  _316
REMARK  136  A    between atoms: _315  and  _318
REMARK  137  A    between atoms: _318  and  _319
REMARK  138  A    between atoms: _322  and  _324
REMARK  139  A    between atoms: _324  and  _325
REMARK  140  A    between atoms: _328  and  _330
REMARK  141  A    between atoms: _330  and  _331
REMARK  142  A    between atoms: _330  and  _333
REMARK  143  A    between atoms: _333  and  _334
REMARK  144  A    between atoms: _337  and  _339
REMARK  145  A    between atoms: _339  and  _340
REMARK  146  A    between atoms: _339  and  _342
REMARK  147  A    between atoms: _342  and  _343
REMARK  148  A    between atoms: _348  and  _350
REMARK  149  A    between atoms: _350  and  _351
REMARK  150  A    between atoms: _350  and  _353
REMARK  151  A    between atoms: _353  and  _354
REMARK  152  A    between atoms: _357  and  _359
REMARK  153  A    between atoms: _359  and  _360
REMARK  154  A    between atoms: _359  and  _362
REMARK  155  A    between atoms: _362  and  _363
REMARK  156  A    between atoms: _363  and  _364
REMARK  157  A    between atoms: _369  and  _371
REMARK  158  A    between atoms: _371  and  _372
REMARK  159  A    between atoms: _374  and  _376
REMARK  160  A    between atoms: _376  and  _377
REMARK  161  A    between atoms: _376  and  _379
REMARK  162  A    between atoms: _379  and  _380
REMARK  163  A    between atoms: _386  and  _388
REMARK  164  A    between atoms: _388  and  _389
REMARK  165  A    between atoms: _388  and  _391
REMARK  166  A    between atoms: _391  and  _392
REMARK  167  A    between atoms: _395  and  _397
REMARK  168  A    between atoms: _397  and  _398
REMARK  169  A    between atoms: _401  and  _403
REMARK  170  A    between atoms: _403  and  _404
REMARK  171  A    between atoms: _403  and  _406
REMARK  172  A    between atoms: _406  and  _407
REMARK  173  A    between atoms: _410  and  _412
REMARK  174  A    between atoms: _412  and  _413
REMARK  175  A    between atoms: _412  and  _415
REMARK  176  A    between atoms: _415  and  _416
REMARK  177  A    between atoms: _419  and  _421
REMARK  178  A    between atoms: _421  and  _422
REMARK  179  A    between atoms: _424  and  _426
REMARK  180  A    between atoms: _426  and  _427
REMARK  181  A    between atoms: _426  and  _429
REMARK  182  A    between atoms: _429  and  _430
REMARK  183  A    between atoms: _433  and  _435
REMARK  184  A    between atoms: _435  and  _436
REMARK  185  A    between atoms: _435  and  _438
REMARK  186  A    between atoms: _438  and  _439
REMARK  187  A    between atoms: _442  and  _444
REMARK  188  A    between atoms: _444  and  _445
REMARK  189  A    between atoms: _444  and  _447
REMARK  190  A    between atoms: _447  and  _448
REMARK  191  A    between atoms: _451  and  _453
REMARK  192  A    between atoms: _453  and  _454
REMARK  193  A    between atoms: _453  and  _456
REMARK  194  A    between atoms: _456  and  _457
REMARK  195  A    between atoms: _460  and  _462
REMARK  196  A    between atoms: _462  and  _463
REMARK  197  A    between atoms: _462  and  _465
REMARK  198  A    between atoms: _465  and  _466
REMARK  199  A    between atoms: _471  and  _472
REMARK  200  A    between atoms: _474  and  _476
REMARK  201  A    between atoms: _476  and  _477
REMARK  202  A    between atoms: _476  and  _479
REMARK  203  A    between atoms: _482  and  _484
REMARK  204  A    between atoms: _484  and  _485
REMARK  205  A    between atoms: _487  and  _489
REMARK  206  A    between atoms: _489  and  _490
REMARK  207  A    between atoms: _489  and  _492
REMARK  208  A    between atoms: _492  and  _493
REMARK  209  A    between atoms: _499  and  _501
REMARK  210  A    between atoms: _501  and  _502
REMARK  211  A    between atoms: _504  and  _506
REMARK  212  A    between atoms: _506  and  _507
REMARK  213  A    between atoms: _506  and  _509
REMARK  214  A    between atoms: _509  and  _510
REMARK  215  A    between atoms: _516  and  _518
REMARK  216  A    between atoms: _518  and  _519
REMARK  217  A    between atoms: _521  and  _523
REMARK  218  A    between atoms: _523  and  _524
REMARK  219  A    between atoms: _526  and  _528
REMARK  220  A    between atoms: _528  and  _529
REMARK  221  A    between atoms: _528  and  _531
REMARK  222  A    between atoms: _531  and  _532
REMARK  223  A    between atoms: _532  and  _533
REMARK  224  A    between atoms: _538  and  _540
REMARK  225  A    between atoms: _540  and  _541
REMARK  226  A    between atoms: _543  and  _545
REMARK  227  A    between atoms: _545  and  _546
REMARK  228  A    between atoms: _545  and  _548
REMARK  229  A    between atoms: _548  and  _549
REMARK  230  A    between atoms: _552  and  _554
REMARK  231  A    between atoms: _554  and  _555
REMARK  232  A    between atoms: _557  and  _559
REMARK  233  A    between atoms: _559  and  _560
REMARK  234  A    between atoms: _559  and  _562
REMARK  235  A    between atoms: _562  and  _563
REMARK  236  A    between atoms: _566  and  _568
REMARK  237  A    between atoms: _568  and  _569
REMARK  238  A    between atoms: _568  and  _571
REMARK  239  A    between atoms: _571  and  _572
REMARK  240  A    between atoms: _577  and  _579
REMARK  241  A    between atoms: _579  and  _580
REMARK  242  A    between atoms: _579  and  _582
REMARK  243  A    between atoms: _582  and  _583
REMARK  244  A    between atoms: _586  and  _588
REMARK  245  A    between atoms: _588  and  _589
REMARK  246  A    between atoms: _591  and  _593
REMARK  247  A    between atoms: _593  and  _594
REMARK  248  A    between atoms: _593  and  _596
REMARK  249  A    between atoms: _596  and  _597
REMARK  250  A    between atoms: _600  and  _602
REMARK  251  A    between atoms: _602  and  _603
REMARK  252  A    between atoms: _602  and  _605
REMARK                            x       y       z     vdW  Elec       q    Type
REMARK                         _______ _______ _______ _____ _____    ______ ____
ROOT
ATOM      1  O   HOH     1      10.530  23.400  24.436  0.00  0.00    +0.000 OA
ENDROOT
TORSDOF 0
REMARK  Name = ../refined-set-2016/3uri/3uri_pocket.pdb
REMARK  252 active torsions:
REMARK  status: ('A' for Active; 'I' for Inactive)
REMARK    1  A    between atoms: _1  and  _3
REMARK    2  A    between atoms: _3  and  _4
REMARK    3  A    between atoms: _3  and  _6
REMARK    4  A    between atoms: _6  and  _7
REMARK    5  A    between atoms: _10  and  _12
REMARK    6  A    between atoms: _12  and  _13
REMARK    7  A    between atoms: _12  and  _15
REMARK    8  A    between atoms: _15  and  _16
REMARK    9  A    between atoms: _19  and  _21
REMARK   10  A    between atoms: _21  and  _22
REMARK   11  A    between atoms: _21  and  _24
REMARK   12  A    between atoms: _24  and  _25
REMARK   13  A    between atoms: _28  and  _30
REMARK   14  A    between atoms: _30  and  _31
REMARK   15  A    between atoms: _30  and  _33
REMARK   16  A    between atoms: _33  and  _34
REMARK   17  A    between atoms: _37  and  _39
REMARK   18  A    between atoms: _39  and  _40
REMARK   19  A    between atoms: _39  and  _42
REMARK   20  A    between atoms: _42  and  _43
REMARK   21  A    between atoms: _46  and  _48
REMARK   22  A    between atoms: _48  and  _49
REMARK   23  A    between atoms: _52  and  _54
REMARK   24  A    between atoms: _54  and  _55
REMARK   25  A    between atoms: _54  and  _57
REMARK   26  A    between atoms: _57  and  _58
REMARK   27  A    between atoms: _63  and  _64
REMARK   28  A    between atoms: _66  and  _68
REMARK   29  A    between atoms: _68  and  _69
REMARK   30  A    between atoms: _68  and  _71
REMARK   31  A    between atoms: _71  and  _72
REMARK   32  A    between atoms: _75  and  _77
REMARK   33  A    between atoms: _77  and  _78
REMARK   34  A    between atoms: _77  and  _80
REMARK   35  A    between atoms: _80  and  _81
REMARK   36  A    between atoms: _84  and  _86
REMARK   37  A    between atoms: _86  and  _87
REMARK   38  A    between atoms: _86  and  _89
REMARK   39  A    between atoms: _89  and  _90
REMARK   40  A    between atoms: _96  and  _98
REMARK   41  A    between atoms: _98  and  _99
REMARK   42  A    between atoms: _98  and  _101
REMARK   43  A    between atoms: _101  and  _102
REMARK   44  A    between atoms: _105  and  _107
REMARK   45  A    between atoms: _107  and  _108
REMARK   46  A    between atoms: _107  and  _110
REMARK   47  A    between atoms: _110  and  _111
REMARK   48  A    between atoms: _114  and  _116
REMARK   49  A    between atoms: _116  and  _117
REMARK   50  A    between atoms: _119  and  _121
REMARK   51  A    between atoms: _121  and  _122
REMARK   52  A    between atoms: _121  and  _124
REMARK   53  A    between atoms: _124  and  _125
REMARK   54  A    between atoms: _127  and  _129
REMARK   55  A    between atoms: _129  and  _130
REMARK   56  A    between atoms: _129  and  _132
REMARK   57  A    between atoms: _132  and  _133
REMARK   58  A    between atoms: _135  and  _137
REMARK   59  A    between atoms: _137  and  _138
REMARK   60  A    between atoms: _137  and  _140
REMARK   61  A    between atoms: _140  and  _141
REMARK   62  A    between atoms: _144  and  _146
REMARK   63  A    between atoms: _146  and  _147
REMARK   64  A    between atoms: _146  and  _149
REMARK   65  A    between atoms: _149  and  _150
REMARK   66  A    between atoms: _160  and  _162
REMARK   67  A    between atoms: _162  and  _163
REMARK   68  A    between atoms: _162  and  _165
REMARK   69  A    between atoms: _165  and  _166
REMARK   70  A    between atoms: _168  and  _170
REMARK   71  A    between atoms: _170  and  _171
REMARK   72  A    between atoms: _170  and  _173
REMARK   73  A    between atoms: _173  and  _174
REMARK   74  A    between atoms: _177  and  _179
REMARK   75  A    between atoms: _179  and  _180
REMARK   76  A    between atoms: _179  and  _182
REMARK   77  A    between atoms: _182  and  _183
REMARK   78  A    between atoms: _185  and  _187
REMARK   79  A    between atoms: _187  and  _188
REMARK   80  A    between atoms: _187  and  _190
REMARK   81  A    between atoms: _190  and  _191
REMARK   82  A    between atoms: _196  and  _197
REMARK   83  A    between atoms: _199  and  _201
REMARK   84  A    between atoms: _201  and  _202
REMARK   85  A    between atoms: _204  and  _206
REMARK   86  A    between atoms: _206  and  _207
REMARK   87  A    between atoms: _206  and  _209
REMARK   88  A    between atoms: _209  and  _210
REMARK   89  A    between atoms: _213  and  _215
REMARK   90  A    between atoms: _215  and  _216
REMARK   91  A    between atoms: _218  and  _220
REMARK   92  A    between atoms: _220  and  _221
REMARK   93  A    between atoms: _220  and  _223
REMARK   94  A    between atoms: _223  and  _224
REMARK   95  A    between atoms: _226  and  _228
REMARK   96  A    between atoms: _228  and  _229
REMARK   97  A    between atoms: _228  and  _231
REMARK   98  A    between atoms: _231  and  _232
REMARK   99  A    between atoms: _234  and  _236
REMARK  100  A    between atoms: _236  and  _237
REMARK  101  A    between atoms: _236  and  _239
REMARK  102  A    between atoms: _239  and  _240
REMARK  103  A    between atoms: _242  and  _244
REMARK  104  A    between atoms: _244  and  _245
REMARK  105  A    between atoms: _244  and  _247
REMARK  106  A    between atoms: _247  and  _248
REMARK  107  A    between atoms: _250  and  _252
REMARK  108  A    between atoms: _252  and  _253
REMARK  109  A    between atoms: _252  and  _255
REMARK  110  A    between atoms: _255  and  _256
REMARK  111  A    between atoms: _262  and  _264
REMARK  112  A    between atoms: _264  and  _265
REMARK  113  A    between atoms: _264  and  _267
REMARK  114  A    between atoms: _267  and  _268
REMARK  115  A    between atoms: _268  and  _269
REMARK  116  A    between atoms: _272  and  _274
REMARK  117  A    between atoms: _274  and  _275
REMARK  118  A    between atoms: _274  and  _277
REMARK  119  A    between atoms: _277  and  _278
REMARK  120  A    between atoms: _281  and  _283
REMARK  121  A    between atoms: _283  and  _284
REMARK  122  A    between atoms: _283  and  _286
REMARK  123  A    between atoms: _286  and  _287
REMARK  124  A    between atoms: _290  and  _292
REMARK  125  A    between atoms: _292  and  _293
REMARK  126  A    between atoms: _292  and  _295
REMARK  127  A    between atoms: _295  and  _296
REMARK  128  A    between atoms: _299  and  _301
REMARK  129  A    between atoms: _301  and  _302
REMARK  130  A    between atoms: _304  and  _306
REMARK  131  A    between atoms: _306  and  _307
REMARK  132  A    between atoms: _306  and  _309
REMARK  133  A    between atoms: _309  and  _310
REMARK  134  A    between atoms: _313  and  _315
REMARK  135  A    between atoms: _315  and  _316
REMARK  136  A    between atoms: _315  and  _318
REMARK  137  A    between atoms: _318  and  _319
REMARK  138  A    between atoms: _322  and  _324
REMARK  139  A    between atoms: _324  and  _325
REMARK  140  A    between atoms: _328  and  _330
REMARK  141  A    between atoms: _330  and  _331
REMARK  142  A    between atoms: _330  and  _333
REMARK  143  A    between atoms: _333  and  _334
REMARK  144  A    between atoms: _337  and  _339
REMARK  145  A    between atoms: _339  and  _340
REMARK  146  A    between atoms: _339  and  _342
REMARK  147  A    between atoms: _342  and  _343
REMARK  148  A    between atoms: _348  and  _350
REMARK  149  A    between atoms: _350  and  _351
REMARK  150  A    between atoms: _350  and  _353
REMARK  151  A    between atoms: _353  and  _354
REMARK  152  A    between atoms: _357  and  _359
REMARK  153  A    between atoms: _359  and  _360
REMARK  154  A    between atoms: _359  and  _362
REMARK  155  A    between atoms: _362  and  _363
REMARK  156  A    between atoms: _363  and  _364
REMARK  157  A    between atoms: _369  and  _371
REMARK  158  A    between atoms: _371  and  _372
REMARK  159  A    between atoms: _374  and  _376
REMARK  160  A    between atoms: _376  and  _377
REMARK  161  A    between atoms: _376  and  _379
REMARK  162  A    between atoms: _379  and  _380
REMARK  163  A    between atoms: _386  and  _388
REMARK  164  A    between atoms: _388  and  _389
REMARK  165  A    between atoms: _388  and  _391
REMARK  166  A    between atoms: _391  and  _392
REMARK  167  A    between atoms: _395  and  _397
REMARK  168  A    between atoms: _397  and  _398
REMARK  169  A    between atoms: _401  and  _403
REMARK  170  A    between atoms: _403  and  _404
REMARK  171  A    between atoms: _403  and  _406
REMARK  172  A    between atoms: _406  and  _407
REMARK  173  A    between atoms: _410  and  _412
REMARK  174  A    between atoms: _412  and  _413
REMARK  175  A    between atoms: _412  and  _415
REMARK  176  A    between atoms: _415  and  _416
REMARK  177  A    between atoms: _419  and  _421
REMARK  178  A    between atoms: _421  and  _422
REMARK  179  A    between atoms: _424  and  _426
REMARK  180  A    between atoms: _426  and  _427
REMARK  181  A    between atoms: _426  and  _429
REMARK  182  A    between atoms: _429  and  _430
REMARK  183  A    between atoms: _433  and  _435
REMARK  184  A    between atoms: _435  and  _436
REMARK  185  A    between atoms: _435  and  _438
REMARK  186  A    between atoms: _438  and  _439
REMARK  187  A    between atoms: _442  and  _444
REMARK  188  A    between atoms: _444  and  _445
REMARK  189  A    between atoms: _444  and  _447
REMARK  190  A    between atoms: _447  and  _448
REMARK  191  A    between atoms: _451  and  _453
REMARK  192  A    between atoms: _453  and  _454
REMARK  193  A    between atoms: _453  and  _456
REMARK  194  A    between atoms: _456  and  _457
REMARK  195  A    between atoms: _460  and  _462
REMARK  196  A    between atoms: _462  and  _463
REMARK  197  A    between atoms: _462  and  _465
REMARK  198  A    between atoms: _465  and  _466
REMARK  199  A    between atoms: _471  and  _472
REMARK  200  A    between atoms: _474  and  _476
REMARK  201  A    between atoms: _476  and  _477
REMARK  202  A    between atoms: _476  and  _479
REMARK  203  A    between atoms: _482  and  _484
REMARK  204  A    between atoms: _484  and  _485
REMARK  205  A    between atoms: _487  and  _489
REMARK  206  A    between atoms: _489  and  _490
REMARK  207  A    between atoms: _489  and  _492
REMARK  208  A    between atoms: _492  and  _493
REMARK  209  A    between atoms: _499  and  _501
REMARK  210  A    between atoms: _501  and  _502
REMARK  211  A    between atoms: _504  and  _506
REMARK  212  A    between atoms: _506  and  _507
REMARK  213  A    between atoms: _506  and  _509
REMARK  214  A    between atoms: _509  and  _510
REMARK  215  A    between atoms: _516  and  _518
REMARK  216  A    between atoms: _518  and  _519
REMARK  217  A    between atoms: _521  and  _523
REMARK  218  A    between atoms: _523  and  _524
REMARK  219  A    between atoms: _526  and  _528
REMARK  220  A    between atoms: _528  and  _529
REMARK  221  A    between atoms: _528  and  _531
REMARK  222  A    between atoms: _531  and  _532
REMARK  223  A    between atoms: _532  and  _533
REMARK  224  A    between atoms: _538  and  _540
REMARK  225  A    between atoms: _540  and  _541
REMARK  226  A    between atoms: _543  and  _545
REMARK  227  A    between atoms: _545  and  _546
REMARK  228  A    between atoms: _545  and  _548
REMARK  229  A    between atoms: _548  and  _549
REMARK  230  A    between atoms: _552  and  _554
REMARK  231  A    between atoms: _554  and  _555
REMARK  232  A    between atoms: _557  and  _559
REMARK  233  A    between atoms: _559  and  _560
REMARK  234  A    between atoms: _559  and  _562
REMARK  235  A    between atoms: _562  and  _563
REMARK  236  A    between atoms: _566  and  _568
REMARK  237  A    between atoms: _568  and  _569
REMARK  238  A    between atoms: _568  and  _571
REMARK  239  A    between atoms: _571  and  _572
REMARK  240  A    between atoms: _577  and  _579
REMARK  241  A    between atoms: _579  and  _580
REMARK  242  A    between atoms: _579  and  _582
REMARK  243  A    between atoms: _582  and  _583
REMARK  244  A    between atoms: _586  and  _588
REMARK  245  A    between atoms: _588  and  _589
REMARK  246  A    between atoms: _591  and  _593
REMARK  247  A    between atoms: _593  and  _594
REMARK  248  A    between atoms: _593  and  _596
REMARK  249  A    between atoms: _596  and  _597
REMARK  250  A    between atoms: _600  and  _602
REMARK  251  A    between atoms: _602  and  _603
REMARK  252  A    between atoms: _602  and  _605
REMARK                            x       y       z     vdW  Elec       q    Type
REMARK                         _______ _______ _______ _____ _____    ______ ____
ROOT
ATOM      1  O   HOH     1       6.823  32.922  22.242  0.00  0.00    +0.000 OA
ENDROOT
TORSDOF 0
REMARK  Name = ../refined-set-2016/3uri/3uri_pocket.pdb
REMARK  252 active torsions:
REMARK  status: ('A' for Active; 'I' for Inactive)
REMARK    1  A    between atoms: _1  and  _3
REMARK    2  A    between atoms: _3  and  _4
REMARK    3  A    between atoms: _3  and  _6
REMARK    4  A    between atoms: _6  and  _7
REMARK    5  A    between atoms: _10  and  _12
REMARK    6  A    between atoms: _12  and  _13
REMARK    7  A    between atoms: _12  and  _15
REMARK    8  A    between atoms: _15  and  _16
REMARK    9  A    between atoms: _19  and  _21
REMARK   10  A    between atoms: _21  and  _22
REMARK   11  A    between atoms: _21  and  _24
REMARK   12  A    between atoms: _24  and  _25
REMARK   13  A    between atoms: _28  and  _30
REMARK   14  A    between atoms: _30  and  _31
REMARK   15  A    between atoms: _30  and  _33
REMARK   16  A    between atoms: _33  and  _34
REMARK   17  A    between atoms: _37  and  _39
REMARK   18  A    between atoms: _39  and  _40
REMARK   19  A    between atoms: _39  and  _42
REMARK   20  A    between atoms: _42  and  _43
REMARK   21  A    between atoms: _46  and  _48
REMARK   22  A    between atoms: _48  and  _49
REMARK   23  A    between atoms: _52  and  _54
REMARK   24  A    between atoms: _54  and  _55
REMARK   25  A    between atoms: _54  and  _57
REMARK   26  A    between atoms: _57  and  _58
REMARK   27  A    between atoms: _63  and  _64
REMARK   28  A    between atoms: _66  and  _68
REMARK   29  A    between atoms: _68  and  _69
REMARK   30  A    between atoms: _68  and  _71
REMARK   31  A    between atoms: _71  and  _72
REMARK   32  A    between atoms: _75  and  _77
REMARK   33  A    between atoms: _77  and  _78
REMARK   34  A    between atoms: _77  and  _80
REMARK   35  A    between atoms: _80  and  _81
REMARK   36  A    between atoms: _84  and  _86
REMARK   37  A    between atoms: _86  and  _87
REMARK   38  A    between atoms: _86  and  _89
REMARK   39  A    between atoms: _89  and  _90
REMARK   40  A    between atoms: _96  and  _98
REMARK   41  A    between atoms: _98  and  _99
REMARK   42  A    between atoms: _98  and  _101
REMARK   43  A    between atoms: _101  and  _102
REMARK   44  A    between atoms: _105  and  _107
REMARK   45  A    between atoms: _107  and  _108
REMARK   46  A    between atoms: _107  and  _110
REMARK   47  A    between atoms: _110  and  _111
REMARK   48  A    between atoms: _114  and  _116
REMARK   49  A    between atoms: _116  and  _117
REMARK   50  A    between atoms: _119  and  _121
REMARK   51  A    between atoms: _121  and  _122
REMARK   52  A    between atoms: _121  and  _124
REMARK   53  A    between atoms: _124  and  _125
REMARK   54  A    between atoms: _127  and  _129
REMARK   55  A    between atoms: _129  and  _130
REMARK   56  A    between atoms: _129  and  _132
REMARK   57  A    between atoms: _132  and  _133
REMARK   58  A    between atoms: _135  and  _137
REMARK   59  A    between atoms: _137  and  _138
REMARK   60  A    between atoms: _137  and  _140
REMARK   61  A    between atoms: _140  and  _141
REMARK   62  A    between atoms: _144  and  _146
REMARK   63  A    between atoms: _146  and  _147
REMARK   64  A    between atoms: _146  and  _149
REMARK   65  A    between atoms: _149  and  _150
REMARK   66  A    between atoms: _160  and  _162
REMARK   67  A    between atoms: _162  and  _163
REMARK   68  A    between atoms: _162  and  _165
REMARK   69  A    between atoms: _165  and  _166
REMARK   70  A    between atoms: _168  and  _170
REMARK   71  A    between atoms: _170  and  _171
REMARK   72  A    between atoms: _170  and  _173
REMARK   73  A    between atoms: _173  and  _174
REMARK   74  A    between atoms: _177  and  _179
REMARK   75  A    between atoms: _179  and  _180
REMARK   76  A    between atoms: _179  and  _182
REMARK   77  A    between atoms: _182  and  _183
REMARK   78  A    between atoms: _185  and  _187
REMARK   79  A    between atoms: _187  and  _188
REMARK   80  A    between atoms: _187  and  _190
REMARK   81  A    between atoms: _190  and  _191
REMARK   82  A    between atoms: _196  and  _197
REMARK   83  A    between atoms: _199  and  _201
REMARK   84  A    between atoms: _201  and  _202
REMARK   85  A    between atoms: _204  and  _206
REMARK   86  A    between atoms: _206  and  _207
REMARK   87  A    between atoms: _206  and  _209
REMARK   88  A    between atoms: _209  and  _210
REMARK   89  A    between atoms: _213  and  _215
REMARK   90  A    between atoms: _215  and  _216
REMARK   91  A    between atoms: _218  and  _220
REMARK   92  A    between atoms: _220  and  _221
REMARK   93  A    between atoms: _220  and  _223
REMARK   94  A    between atoms: _223  and  _224
REMARK   95  A    between atoms: _226  and  _228
REMARK   96  A    between atoms: _228  and  _229
REMARK   97  A    between atoms: _228  and  _231
REMARK   98  A    between atoms: _231  and  _232
REMARK   99  A    between atoms: _234  and  _236
REMARK  100  A    between atoms: _236  and  _237
REMARK  101  A    between atoms: _236  and  _239
REMARK  102  A    between atoms: _239  and  _240
REMARK  103  A    between atoms: _242  and  _244
REMARK  104  A    between atoms: _244  and  _245
REMARK  105  A    between atoms: _244  and  _247
REMARK  106  A    between atoms: _247  and  _248
REMARK  107  A    between atoms: _250  and  _252
REMARK  108  A    between atoms: _252  and  _253
REMARK  109  A    between atoms: _252  and  _255
REMARK  110  A    between atoms: _255  and  _256
REMARK  111  A    between atoms: _262  and  _264
REMARK  112  A    between atoms: _264  and  _265
REMARK  113  A    between atoms: _264  and  _267
REMARK  114  A    between atoms: _267  and  _268
REMARK  115  A    between atoms: _268  and  _269
REMARK  116  A    between atoms: _272  and  _274
REMARK  117  A    between atoms: _274  and  _275
REMARK  118  A    between atoms: _274  and  _277
REMARK  119  A    between atoms: _277  and  _278
REMARK  120  A    between atoms: _281  and  _283
REMARK  121  A    between atoms: _283  and  _284
REMARK  122  A    between atoms: _283  and  _286
REMARK  123  A    between atoms: _286  and  _287
REMARK  124  A    between atoms: _290  and  _292
REMARK  125  A    between atoms: _292  and  _293
REMARK  126  A    between atoms: _292  and  _295
REMARK  127  A    between atoms: _295  and  _296
REMARK  128  A    between atoms: _299  and  _301
REMARK  129  A    between atoms: _301  and  _302
REMARK  130  A    between atoms: _304  and  _306
REMARK  131  A    between atoms: _306  and  _307
REMARK  132  A    between atoms: _306  and  _309
REMARK  133  A    between atoms: _309  and  _310
REMARK  134  A    between atoms: _313  and  _315
REMARK  135  A    between atoms: _315  and  _316
REMARK  136  A    between atoms: _315  and  _318
REMARK  137  A    between atoms: _318  and  _319
REMARK  138  A    between atoms: _322  and  _324
REMARK  139  A    between atoms: _324  and  _325
REMARK  140  A    between atoms: _328  and  _330
REMARK  141  A    between atoms: _330  and  _331
REMARK  142  A    between atoms: _330  and  _333
REMARK  143  A    between atoms: _333  and  _334
REMARK  144  A    between atoms: _337  and  _339
REMARK  145  A    between atoms: _339  and  _340
REMARK  146  A    between atoms: _339  and  _342
REMARK  147  A    between atoms: _342  and  _343
REMARK  148  A    between atoms: _348  and  _350
REMARK  149  A    between atoms: _350  and  _351
REMARK  150  A    between atoms: _350  and  _353
REMARK  151  A    between atoms: _353  and  _354
REMARK  152  A    between atoms: _357  and  _359
REMARK  153  A    between atoms: _359  and  _360
REMARK  154  A    between atoms: _359  and  _362
REMARK  155  A    between atoms: _362  and  _363
REMARK  156  A    between atoms: _363  and  _364
REMARK  157  A    between atoms: _369  and  _371
REMARK  158  A    between atoms: _371  and  _372
REMARK  159  A    between atoms: _374  and  _376
REMARK  160  A    between atoms: _376  and  _377
REMARK  161  A    between atoms: _376  and  _379
REMARK  162  A    between atoms: _379  and  _380
REMARK  163  A    between atoms: _386  and  _388
REMARK  164  A    between atoms: _388  and  _389
REMARK  165  A    between atoms: _388  and  _391
REMARK  166  A    between atoms: _391  and  _392
REMARK  167  A    between atoms: _395  and  _397
REMARK  168  A    between atoms: _397  and  _398
REMARK  169  A    between atoms: _401  and  _403
REMARK  170  A    between atoms: _403  and  _404
REMARK  171  A    between atoms: _403  and  _406
REMARK  172  A    between atoms: _406  and  _407
REMARK  173  A    between atoms: _410  and  _412
REMARK  174  A    between atoms: _412  and  _413
REMARK  175  A    between atoms: _412  and  _415
REMARK  176  A    between atoms: _415  and  _416
REMARK  177  A    between atoms: _419  and  _421
REMARK  178  A    between atoms: _421  and  _422
REMARK  179  A    between atoms: _424  and  _426
REMARK  180  A    between atoms: _426  and  _427
REMARK  181  A    between atoms: _426  and  _429
REMARK  182  A    between atoms: _429  and  _430
REMARK  183  A    between atoms: _433  and  _435
REMARK  184  A    between atoms: _435  and  _436
REMARK  185  A    between atoms: _435  and  _438
REMARK  186  A    between atoms: _438  and  _439
REMARK  187  A    between atoms: _442  and  _444
REMARK  188  A    between atoms: _444  and  _445
REMARK  189  A    between atoms: _444  and  _447
REMARK  190  A    between atoms: _447  and  _448
REMARK  191  A    between atoms: _451  and  _453
REMARK  192  A    between atoms: _453  and  _454
REMARK  193  A    between atoms: _453  and  _456
REMARK  194  A    between atoms: _456  and  _457
REMARK  195  A    between atoms: _460  and  _462
REMARK  196  A    between atoms: _462  and  _463
REMARK  197  A    between atoms: _462  and  _465
REMARK  198  A    between atoms: _465  and  _466
REMARK  199  A    between atoms: _471  and  _472
REMARK  200  A    between atoms: _474  and  _476
REMARK  201  A    between atoms: _476  and  _477
REMARK  202  A    between atoms: _476  and  _479
REMARK  203  A    between atoms: _482  and  _484
REMARK  204  A    between atoms: _484  and  _485
REMARK  205  A    between atoms: _487  and  _489
REMARK  206  A    between atoms: _489  and  _490
REMARK  207  A    between atoms: _489  and  _492
REMARK  208  A    between atoms: _492  and  _493
REMARK  209  A    between atoms: _499  and  _501
REMARK  210  A    between atoms: _501  and  _502
REMARK  211  A    between atoms: _504  and  _506
REMARK  212  A    between atoms: _506  and  _507
REMARK  213  A    between atoms: _506  and  _509
REMARK  214  A    between atoms: _509  and  _510
REMARK  215  A    between atoms: _516  and  _518
REMARK  216  A    between atoms: _518  and  _519
REMARK  217  A    between atoms: _521  and  _523
REMARK  218  A    between atoms: _523  and  _524
REMARK  219  A    between atoms: _526  and  _528
REMARK  220  A    between atoms: _528  and  _529
REMARK  221  A    between atoms: _528  and  _531
REMARK  222  A    between atoms: _531  and  _532
REMARK  223  A    between atoms: _532  and  _533
REMARK  224  A    between atoms: _538  and  _540
REMARK  225  A    between atoms: _540  and  _541
REMARK  226  A    between atoms: _543  and  _545
REMARK  227  A    between atoms: _545  and  _546
REMARK  228  A    between atoms: _545  and  _548
REMARK  229  A    between atoms: _548  and  _549
REMARK  230  A    between atoms: _552  and  _554
REMARK  231  A    between atoms: _554  and  _555
REMARK  232  A    between atoms: _557  and  _559
REMARK  233  A    between atoms: _559  and  _560
REMARK  234  A    between atoms: _559  and  _562
REMARK  235  A    between atoms: _562  and  _563
REMARK  236  A    between atoms: _566  and  _568
REMARK  237  A    between atoms: _568  and  _569
REMARK  238  A    between atoms: _568  and  _571
REMARK  239  A    between atoms: _571  and  _572
REMARK  240  A    between atoms: _577  and  _579
REMARK  241  A    between atoms: _579  and  _580
REMARK  242  A    between atoms: _579  and  _582
REMARK  243  A    between atoms: _582  and  _583
REMARK  244  A    between atoms: _586  and  _588
REMARK  245  A    between atoms: _588  and  _589
REMARK  246  A    between atoms: _591  and  _593
REMARK  247  A    between atoms: _593  and  _594
REMARK  248  A    between atoms: _593  and  _596
REMARK  249  A    between atoms: _596  and  _597
REMARK  250  A    between atoms: _600  and  _602
REMARK  251  A    between atoms: _602  and  _603
REMARK  252  A    between atoms: _602  and  _605
REMARK                            x       y       z     vdW  Elec       q    Type
REMARK                         _______ _______ _______ _____ _____    ______ ____
ROOT
ATOM      1  O   HOH     1       3.238  16.515  27.481  0.00  0.00    +0.000 OA
ENDROOT
TORSDOF 0
REMARK  Name = ../refined-set-2016/3uri/3uri_pocket.pdb
REMARK  252 active torsions:
REMARK  status: ('A' for Active; 'I' for Inactive)
REMARK    1  A    between atoms: _1  and  _3
REMARK    2  A    between atoms: _3  and  _4
REMARK    3  A    between atoms: _3  and  _6
REMARK    4  A    between atoms: _6  and  _7
REMARK    5  A    between atoms: _10  and  _12
REMARK    6  A    between atoms: _12  and  _13
REMARK    7  A    between atoms: _12  and  _15
REMARK    8  A    between atoms: _15  and  _16
REMARK    9  A    between atoms: _19  and  _21
REMARK   10  A    between atoms: _21  and  _22
REMARK   11  A    between atoms: _21  and  _24
REMARK   12  A    between atoms: _24  and  _25
REMARK   13  A    between atoms: _28  and  _30
REMARK   14  A    between atoms: _30  and  _31
REMARK   15  A    between atoms: _30  and  _33
REMARK   16  A    between atoms: _33  and  _34
REMARK   17  A    between atoms: _37  and  _39
REMARK   18  A    between atoms: _39  and  _40
REMARK   19  A    between atoms: _39  and  _42
REMARK   20  A    between atoms: _42  and  _43
REMARK   21  A    between atoms: _46  and  _48
REMARK   22  A    between atoms: _48  and  _49
REMARK   23  A    between atoms: _52  and  _54
REMARK   24  A    between atoms: _54  and  _55
REMARK   25  A    between atoms: _54  and  _57
REMARK   26  A    between atoms: _57  and  _58
REMARK   27  A    between atoms: _63  and  _64
REMARK   28  A    between atoms: _66  and  _68
REMARK   29  A    between atoms: _68  and  _69
REMARK   30  A    between atoms: _68  and  _71
REMARK   31  A    between atoms: _71  and  _72
REMARK   32  A    between atoms: _75  and  _77
REMARK   33  A    between atoms: _77  and  _78
REMARK   34  A    between atoms: _77  and  _80
REMARK   35  A    between atoms: _80  and  _81
REMARK   36  A    between atoms: _84  and  _86
REMARK   37  A    between atoms: _86  and  _87
REMARK   38  A    between atoms: _86  and  _89
REMARK   39  A    between atoms: _89  and  _90
REMARK   40  A    between atoms: _96  and  _98
REMARK   41  A    between atoms: _98  and  _99
REMARK   42  A    between atoms: _98  and  _101
REMARK   43  A    between atoms: _101  and  _102
REMARK   44  A    between atoms: _105  and  _107
REMARK   45  A    between atoms: _107  and  _108
REMARK   46  A    between atoms: _107  and  _110
REMARK   47  A    between atoms: _110  and  _111
REMARK   48  A    between atoms: _114  and  _116
REMARK   49  A    between atoms: _116  and  _117
REMARK   50  A    between atoms: _119  and  _121
REMARK   51  A    between atoms: _121  and  _122
REMARK   52  A    between atoms: _121  and  _124
REMARK   53  A    between atoms: _124  and  _125
REMARK   54  A    between atoms: _127  and  _129
REMARK   55  A    between atoms: _129  and  _130
REMARK   56  A    between atoms: _129  and  _132
REMARK   57  A    between atoms: _132  and  _133
REMARK   58  A    between atoms: _135  and  _137
REMARK   59  A    between atoms: _137  and  _138
REMARK   60  A    between atoms: _137  and  _140
REMARK   61  A    between atoms: _140  and  _141
REMARK   62  A    between atoms: _144  and  _146
REMARK   63  A    between atoms: _146  and  _147
REMARK   64  A    between atoms: _146  and  _149
REMARK   65  A    between atoms: _149  and  _150
REMARK   66  A    between atoms: _160  and  _162
REMARK   67  A    between atoms: _162  and  _163
REMARK   68  A    between atoms: _162  and  _165
REMARK   69  A    between atoms: _165  and  _166
REMARK   70  A    between atoms: _168  and  _170
REMARK   71  A    between atoms: _170  and  _171
REMARK   72  A    between atoms: _170  and  _173
REMARK   73  A    between atoms: _173  and  _174
REMARK   74  A    between atoms: _177  and  _179
REMARK   75  A    between atoms: _179  and  _180
REMARK   76  A    between atoms: _179  and  _182
REMARK   77  A    between atoms: _182  and  _183
REMARK   78  A    between atoms: _185  and  _187
REMARK   79  A    between atoms: _187  and  _188
REMARK   80  A    between atoms: _187  and  _190
REMARK   81  A    between atoms: _190  and  _191
REMARK   82  A    between atoms: _196  and  _197
REMARK   83  A    between atoms: _199  and  _201
REMARK   84  A    between atoms: _201  and  _202
REMARK   85  A    between atoms: _204  and  _206
REMARK   86  A    between atoms: _206  and  _207
REMARK   87  A    between atoms: _206  and  _209
REMARK   88  A    between atoms: _209  and  _210
REMARK   89  A    between atoms: _213  and  _215
REMARK   90  A    between atoms: _215  and  _216
REMARK   91  A    between atoms: _218  and  _220
REMARK   92  A    between atoms: _220  and  _221
REMARK   93  A    between atoms: _220  and  _223
REMARK   94  A    between atoms: _223  and  _224
REMARK   95  A    between atoms: _226  and  _228
REMARK   96  A    between atoms: _228  and  _229
REMARK   97  A    between atoms: _228  and  _231
REMARK   98  A    between atoms: _231  and  _232
REMARK   99  A    between atoms: _234  and  _236
REMARK  100  A    between atoms: _236  and  _237
REMARK  101  A    between atoms: _236  and  _239
REMARK  102  A    between atoms: _239  and  _240
REMARK  103  A    between atoms: _242  and  _244
REMARK  104  A    between atoms: _244  and  _245
REMARK  105  A    between atoms: _244  and  _247
REMARK  106  A    between atoms: _247  and  _248
REMARK  107  A    between atoms: _250  and  _252
REMARK  108  A    between atoms: _252  and  _253
REMARK  109  A    between atoms: _252  and  _255
REMARK  110  A    between atoms: _255  and  _256
REMARK  111  A    between atoms: _262  and  _264
REMARK  112  A    between atoms: _264  and  _265
REMARK  113  A    between atoms: _264  and  _267
REMARK  114  A    between atoms: _267  and  _268
REMARK  115  A    between atoms: _268  and  _269
REMARK  116  A    between atoms: _272  and  _274
REMARK  117  A    between atoms: _274  and  _275
REMARK  118  A    between atoms: _274  and  _277
REMARK  119  A    between atoms: _277  and  _278
REMARK  120  A    between atoms: _281  and  _283
REMARK  121  A    between atoms: _283  and  _284
REMARK  122  A    between atoms: _283  and  _286
REMARK  123  A    between atoms: _286  and  _287
REMARK  124  A    between atoms: _290  and  _292
REMARK  125  A    between atoms: _292  and  _293
REMARK  126  A    between atoms: _292  and  _295
REMARK  127  A    between atoms: _295  and  _296
REMARK  128  A    between atoms: _299  and  _301
REMARK  129  A    between atoms: _301  and  _302
REMARK  130  A    between atoms: _304  and  _306
REMARK  131  A    between atoms: _306  and  _307
REMARK  132  A    between atoms: _306  and  _309
REMARK  133  A    between atoms: _309  and  _310
REMARK  134  A    between atoms: _313  and  _315
REMARK  135  A    between atoms: _315  and  _316
REMARK  136  A    between atoms: _315  and  _318
REMARK  137  A    between atoms: _318  and  _319
REMARK  138  A    between atoms: _322  and  _324
REMARK  139  A    between atoms: _324  and  _325
REMARK  140  A    between atoms: _328  and  _330
REMARK  141  A    between atoms: _330  and  _331
REMARK  142  A    between atoms: _330  and  _333
REMARK  143  A    between atoms: _333  and  _334
REMARK  144  A    between atoms: _337  and  _339
REMARK  145  A    between atoms: _339  and  _340
REMARK  146  A    between atoms: _339  and  _342
REMARK  147  A    between atoms: _342  and  _343
REMARK  148  A    between atoms: _348  and  _350
REMARK  149  A    between atoms: _350  and  _351
REMARK  150  A    between atoms: _350  and  _353
REMARK  151  A    between atoms: _353  and  _354
REMARK  152  A    between atoms: _357  and  _359
REMARK  153  A    between atoms: _359  and  _360
REMARK  154  A    between atoms: _359  and  _362
REMARK  155  A    between atoms: _362  and  _363
REMARK  156  A    between atoms: _363  and  _364
REMARK  157  A    between atoms: _369  and  _371
REMARK  158  A    between atoms: _371  and  _372
REMARK  159  A    between atoms: _374  and  _376
REMARK  160  A    between atoms: _376  and  _377
REMARK  161  A    between atoms: _376  and  _379
REMARK  162  A    between atoms: _379  and  _380
REMARK  163  A    between atoms: _386  and  _388
REMARK  164  A    between atoms: _388  and  _389
REMARK  165  A    between atoms: _388  and  _391
REMARK  166  A    between atoms: _391  and  _392
REMARK  167  A    between atoms: _395  and  _397
REMARK  168  A    between atoms: _397  and  _398
REMARK  169  A    between atoms: _401  and  _403
REMARK  170  A    between atoms: _403  and  _404
REMARK  171  A    between atoms: _403  and  _406
REMARK  172  A    between atoms: _406  and  _407
REMARK  173  A    between atoms: _410  and  _412
REMARK  174  A    between atoms: _412  and  _413
REMARK  175  A    between atoms: _412  and  _415
REMARK  176  A    between atoms: _415  and  _416
REMARK  177  A    between atoms: _419  and  _421
REMARK  178  A    between atoms: _421  and  _422
REMARK  179  A    between atoms: _424  and  _426
REMARK  180  A    between atoms: _426  and  _427
REMARK  181  A    between atoms: _426  and  _429
REMARK  182  A    between atoms: _429  and  _430
REMARK  183  A    between atoms: _433  and  _435
REMARK  184  A    between atoms: _435  and  _436
REMARK  185  A    between atoms: _435  and  _438
REMARK  186  A    between atoms: _438  and  _439
REMARK  187  A    between atoms: _442  and  _444
REMARK  188  A    between atoms: _444  and  _445
REMARK  189  A    between atoms: _444  and  _447
REMARK  190  A    between atoms: _447  and  _448
REMARK  191  A    between atoms: _451  and  _453
REMARK  192  A    between atoms: _453  and  _454
REMARK  193  A    between atoms: _453  and  _456
REMARK  194  A    between atoms: _456  and  _457
REMARK  195  A    between atoms: _460  and  _462
REMARK  196  A    between atoms: _462  and  _463
REMARK  197  A    between atoms: _462  and  _465
REMARK  198  A    between atoms: _465  and  _466
REMARK  199  A    between atoms: _471  and  _472
REMARK  200  A    between atoms: _474  and  _476
REMARK  201  A    between atoms: _476  and  _477
REMARK  202  A    between atoms: _476  and  _479
REMARK  203  A    between atoms: _482  and  _484
REMARK  204  A    between atoms: _484  and  _485
REMARK  205  A    between atoms: _487  and  _489
REMARK  206  A    between atoms: _489  and  _490
REMARK  207  A    between atoms: _489  and  _492
REMARK  208  A    between atoms: _492  and  _493
REMARK  209  A    between atoms: _499  and  _501
REMARK  210  A    between atoms: _501  and  _502
REMARK  211  A    between atoms: _504  and  _506
REMARK  212  A    between atoms: _506  and  _507
REMARK  213  A    between atoms: _506  and  _509
REMARK  214  A    between atoms: _509  and  _510
REMARK  215  A    between atoms: _516  and  _518
REMARK  216  A    between atoms: _518  and  _519
REMARK  217  A    between atoms: _521  and  _523
REMARK  218  A    between atoms: _523  and  _524
REMARK  219  A    between atoms: _526  and  _528
REMARK  220  A    between atoms: _528  and  _529
REMARK  221  A    between atoms: _528  and  _531
REMARK  222  A    between atoms: _531  and  _532
REMARK  223  A    between atoms: _532  and  _533
REMARK  224  A    between atoms: _538  and  _540
REMARK  225  A    between atoms: _540  and  _541
REMARK  226  A    between atoms: _543  and  _545
REMARK  227  A    between atoms: _545  and  _546
REMARK  228  A    between atoms: _545  and  _548
REMARK  229  A    between atoms: _548  and  _549
REMARK  230  A    between atoms: _552  and  _554
REMARK  231  A    between atoms: _554  and  _555
REMARK  232  A    between atoms: _557  and  _559
REMARK  233  A    between atoms: _559  and  _560
REMARK  234  A    between atoms: _559  and  _562
REMARK  235  A    between atoms: _562  and  _563
REMARK  236  A    between atoms: _566  and  _568
REMARK  237  A    between atoms: _568  and  _569
REMARK  238  A    between atoms: _568  and  _571
REMARK  239  A    between atoms: _571  and  _572
REMARK  240  A    between atoms: _577  and  _579
REMARK  241  A    between atoms: _579  and  _580
REMARK  242  A    between atoms: _579  and  _582
REMARK  243  A    between atoms: _582  and  _583
REMARK  244  A    between atoms: _586  and  _588
REMARK  245  A    between atoms: _588  and  _589
REMARK  246  A    between atoms: _591  and  _593
REMARK  247  A    between atoms: _593  and  _594
REMARK  248  A    between atoms: _593  and  _596
REMARK  249  A    between atoms: _596  and  _597
REMARK  250  A    between atoms: _600  and  _602
REMARK  251  A    between atoms: _602  and  _603
REMARK  252  A    between atoms: _602  and  _605
REMARK                            x       y       z     vdW  Elec       q    Type
REMARK                         _______ _______ _______ _____ _____    ______ ____
ROOT
ATOM      1  O   HOH     1      -4.712  43.030   7.174  0.00  0.00    +0.000 OA
ENDROOT
TORSDOF 0
REMARK  Name = ../refined-set-2016/3uri/3uri_pocket.pdb
REMARK  252 active torsions:
REMARK  status: ('A' for Active; 'I' for Inactive)
REMARK    1  A    between atoms: _1  and  _3
REMARK    2  A    between atoms: _3  and  _4
REMARK    3  A    between atoms: _3  and  _6
REMARK    4  A    between atoms: _6  and  _7
REMARK    5  A    between atoms: _10  and  _12
REMARK    6  A    between atoms: _12  and  _13
REMARK    7  A    between atoms: _12  and  _15
REMARK    8  A    between atoms: _15  and  _16
REMARK    9  A    between atoms: _19  and  _21
REMARK   10  A    between atoms: _21  and  _22
REMARK   11  A    between atoms: _21  and  _24
REMARK   12  A    between atoms: _24  and  _25
REMARK   13  A    between atoms: _28  and  _30
REMARK   14  A    between atoms: _30  and  _31
REMARK   15  A    between atoms: _30  and  _33
REMARK   16  A    between atoms: _33  and  _34
REMARK   17  A    between atoms: _37  and  _39
REMARK   18  A    between atoms: _39  and  _40
REMARK   19  A    between atoms: _39  and  _42
REMARK   20  A    between atoms: _42  and  _43
REMARK   21  A    between atoms: _46  and  _48
REMARK   22  A    between atoms: _48  and  _49
REMARK   23  A    between atoms: _52  and  _54
REMARK   24  A    between atoms: _54  and  _55
REMARK   25  A    between atoms: _54  and  _57
REMARK   26  A    between atoms: _57  and  _58
REMARK   27  A    between atoms: _63  and  _64
REMARK   28  A    between atoms: _66  and  _68
REMARK   29  A    between atoms: _68  and  _69
REMARK   30  A    between atoms: _68  and  _71
REMARK   31  A    between atoms: _71  and  _72
REMARK   32  A    between atoms: _75  and  _77
REMARK   33  A    between atoms: _77  and  _78
REMARK   34  A    between atoms: _77  and  _80
REMARK   35  A    between atoms: _80  and  _81
REMARK   36  A    between atoms: _84  and  _86
REMARK   37  A    between atoms: _86  and  _87
REMARK   38  A    between atoms: _86  and  _89
REMARK   39  A    between atoms: _89  and  _90
REMARK   40  A    between atoms: _96  and  _98
REMARK   41  A    between atoms: _98  and  _99
REMARK   42  A    between atoms: _98  and  _101
REMARK   43  A    between atoms: _101  and  _102
REMARK   44  A    between atoms: _105  and  _107
REMARK   45  A    between atoms: _107  and  _108
REMARK   46  A    between atoms: _107  and  _110
REMARK   47  A    between atoms: _110  and  _111
REMARK   48  A    between atoms: _114  and  _116
REMARK   49  A    between atoms: _116  and  _117
REMARK   50  A    between atoms: _119  and  _121
REMARK   51  A    between atoms: _121  and  _122
REMARK   52  A    between atoms: _121  and  _124
REMARK   53  A    between atoms: _124  and  _125
REMARK   54  A    between atoms: _127  and  _129
REMARK   55  A    between atoms: _129  and  _130
REMARK   56  A    between atoms: _129  and  _132
REMARK   57  A    between atoms: _132  and  _133
REMARK   58  A    between atoms: _135  and  _137
REMARK   59  A    between atoms: _137  and  _138
REMARK   60  A    between atoms: _137  and  _140
REMARK   61  A    between atoms: _140  and  _141
REMARK   62  A    between atoms: _144  and  _146
REMARK   63  A    between atoms: _146  and  _147
REMARK   64  A    between atoms: _146  and  _149
REMARK   65  A    between atoms: _149  and  _150
REMARK   66  A    between atoms: _160  and  _162
REMARK   67  A    between atoms: _162  and  _163
REMARK   68  A    between atoms: _162  and  _165
REMARK   69  A    between atoms: _165  and  _166
REMARK   70  A    between atoms: _168  and  _170
REMARK   71  A    between atoms: _170  and  _171
REMARK   72  A    between atoms: _170  and  _173
REMARK   73  A    between atoms: _173  and  _174
REMARK   74  A    between atoms: _177  and  _179
REMARK   75  A    between atoms: _179  and  _180
REMARK   76  A    between atoms: _179  and  _182
REMARK   77  A    between atoms: _182  and  _183
REMARK   78  A    between atoms: _185  and  _187
REMARK   79  A    between atoms: _187  and  _188
REMARK   80  A    between atoms: _187  and  _190
REMARK   81  A    between atoms: _190  and  _191
REMARK   82  A    between atoms: _196  and  _197
REMARK   83  A    between atoms: _199  and  _201
REMARK   84  A    between atoms: _201  and  _202
REMARK   85  A    between atoms: _204  and  _206
REMARK   86  A    between atoms: _206  and  _207
REMARK   87  A    between atoms: _206  and  _209
REMARK   88  A    between atoms: _209  and  _210
REMARK   89  A    between atoms: _213  and  _215
REMARK   90  A    between atoms: _215  and  _216
REMARK   91  A    between atoms: _218  and  _220
REMARK   92  A    between atoms: _220  and  _221
REMARK   93  A    between atoms: _220  and  _223
REMARK   94  A    between atoms: _223  and  _224
REMARK   95  A    between atoms: _226  and  _228
REMARK   96  A    between atoms: _228  and  _229
REMARK   97  A    between atoms: _228  and  _231
REMARK   98  A    between atoms: _231  and  _232
REMARK   99  A    between atoms: _234  and  _236
REMARK  100  A    between atoms: _236  and  _237
REMARK  101  A    between atoms: _236  and  _239
REMARK  102  A    between atoms: _239  and  _240
REMARK  103  A    between atoms: _242  and  _244
REMARK  104  A    between atoms: _244  and  _245
REMARK  105  A    between atoms: _244  and  _247
REMARK  106  A    between atoms: _247  and  _248
REMARK  107  A    between atoms: _250  and  _252
REMARK  108  A    between atoms: _252  and  _253
REMARK  109  A    between atoms: _252  and  _255
REMARK  110  A    between atoms: _255  and  _256
REMARK  111  A    between atoms: _262  and  _264
REMARK  112  A    between atoms: _264  and  _265
REMARK  113  A    between atoms: _264  and  _267
REMARK  114  A    between atoms: _267  and  _268
REMARK  115  A    between atoms: _268  and  _269
REMARK  116  A    between atoms: _272  and  _274
REMARK  117  A    between atoms: _274  and  _275
REMARK  118  A    between atoms: _274  and  _277
REMARK  119  A    between atoms: _277  and  _278
REMARK  120  A    between atoms: _281  and  _283
REMARK  121  A    between atoms: _283  and  _284
REMARK  122  A    between atoms: _283  and  _286
REMARK  123  A    between atoms: _286  and  _287
REMARK  124  A    between atoms: _290  and  _292
REMARK  125  A    between atoms: _292  and  _293
REMARK  126  A    between atoms: _292  and  _295
REMARK  127  A    between atoms: _295  and  _296
REMARK  128  A    between atoms: _299  and  _301
REMARK  129  A    between atoms: _301  and  _302
REMARK  130  A    between atoms: _304  and  _306
REMARK  131  A    between atoms: _306  and  _307
REMARK  132  A    between atoms: _306  and  _309
REMARK  133  A    between atoms: _309  and  _310
REMARK  134  A    between atoms: _313  and  _315
REMARK  135  A    between atoms: _315  and  _316
REMARK  136  A    between atoms: _315  and  _318
REMARK  137  A    between atoms: _318  and  _319
REMARK  138  A    between atoms: _322  and  _324
REMARK  139  A    between atoms: _324  and  _325
REMARK  140  A    between atoms: _328  and  _330
REMARK  141  A    between atoms: _330  and  _331
REMARK  142  A    between atoms: _330  and  _333
REMARK  143  A    between atoms: _333  and  _334
REMARK  144  A    between atoms: _337  and  _339
REMARK  145  A    between atoms: _339  and  _340
REMARK  146  A    between atoms: _339  and  _342
REMARK  147  A    between atoms: _342  and  _343
REMARK  148  A    between atoms: _348  and  _350
REMARK  149  A    between atoms: _350  and  _351
REMARK  150  A    between atoms: _350  and  _353
REMARK  151  A    between atoms: _353  and  _354
REMARK  152  A    between atoms: _357  and  _359
REMARK  153  A    between atoms: _359  and  _360
REMARK  154  A    between atoms: _359  and  _362
REMARK  155  A    between atoms: _362  and  _363
REMARK  156  A    between atoms: _363  and  _364
REMARK  157  A    between atoms: _369  and  _371
REMARK  158  A    between atoms: _371  and  _372
REMARK  159  A    between atoms: _374  and  _376
REMARK  160  A    between atoms: _376  and  _377
REMARK  161  A    between atoms: _376  and  _379
REMARK  162  A    between atoms: _379  and  _380
REMARK  163  A    between atoms: _386  and  _388
REMARK  164  A    between atoms: _388  and  _389
REMARK  165  A    between atoms: _388  and  _391
REMARK  166  A    between atoms: _391  and  _392
REMARK  167  A    between atoms: _395  and  _397
REMARK  168  A    between atoms: _397  and  _398
REMARK  169  A    between atoms: _401  and  _403
REMARK  170  A    between atoms: _403  and  _404
REMARK  171  A    between atoms: _403  and  _406
REMARK  172  A    between atoms: _406  and  _407
REMARK  173  A    between atoms: _410  and  _412
REMARK  174  A    between atoms: _412  and  _413
REMARK  175  A    between atoms: _412  and  _415
REMARK  176  A    between atoms: _415  and  _416
REMARK  177  A    between atoms: _419  and  _421
REMARK  178  A    between atoms: _421  and  _422
REMARK  179  A    between atoms: _424  and  _426
REMARK  180  A    between atoms: _426  and  _427
REMARK  181  A    between atoms: _426  and  _429
REMARK  182  A    between atoms: _429  and  _430
REMARK  183  A    between atoms: _433  and  _435
REMARK  184  A    between atoms: _435  and  _436
REMARK  185  A    between atoms: _435  and  _438
REMARK  186  A    between atoms: _438  and  _439
REMARK  187  A    between atoms: _442  and  _444
REMARK  188  A    between atoms: _444  and  _445
REMARK  189  A    between atoms: _444  and  _447
REMARK  190  A    between atoms: _447  and  _448
REMARK  191  A    between atoms: _451  and  _453
REMARK  192  A    between atoms: _453  and  _454
REMARK  193  A    between atoms: _453  and  _456
REMARK  194  A    between atoms: _456  and  _457
REMARK  195  A    between atoms: _460  and  _462
REMARK  196  A    between atoms: _462  and  _463
REMARK  197  A    between atoms: _462  and  _465
REMARK  198  A    between atoms: _465  and  _466
REMARK  199  A    between atoms: _471  and  _472
REMARK  200  A    between atoms: _474  and  _476
REMARK  201  A    between atoms: _476  and  _477
REMARK  202  A    between atoms: _476  and  _479
REMARK  203  A    between atoms: _482  and  _484
REMARK  204  A    between atoms: _484  and  _485
REMARK  205  A    between atoms: _487  and  _489
REMARK  206  A    between atoms: _489  and  _490
REMARK  207  A    between atoms: _489  and  _492
REMARK  208  A    between atoms: _492  and  _493
REMARK  209  A    between atoms: _499  and  _501
REMARK  210  A    between atoms: _501  and  _502
REMARK  211  A    between atoms: _504  and  _506
REMARK  212  A    between atoms: _506  and  _507
REMARK  213  A    between atoms: _506  and  _509
REMARK  214  A    between atoms: _509  and  _510
REMARK  215  A    between atoms: _516  and  _518
REMARK  216  A    between atoms: _518  and  _519
REMARK  217  A    between atoms: _521  and  _523
REMARK  218  A    between atoms: _523  and  _524
REMARK  219  A    between atoms: _526  and  _528
REMARK  220  A    between atoms: _528  and  _529
REMARK  221  A    between atoms: _528  and  _531
REMARK  222  A    between atoms: _531  and  _532
REMARK  223  A    between atoms: _532  and  _533
REMARK  224  A    between atoms: _538  and  _540
REMARK  225  A    between atoms: _540  and  _541
REMARK  226  A    between atoms: _543  and  _545
REMARK  227  A    between atoms: _545  and  _546
REMARK  228  A    between atoms: _545  and  _548
REMARK  229  A    between atoms: _548  and  _549
REMARK  230  A    between atoms: _552  and  _554
REMARK  231  A    between atoms: _554  and  _555
REMARK  232  A    between atoms: _557  and  _559
REMARK  233  A    between atoms: _559  and  _560
REMARK  234  A    between atoms: _559  and  _562
REMARK  235  A    between atoms: _562  and  _563
REMARK  236  A    between atoms: _566  and  _568
REMARK  237  A    between atoms: _568  and  _569
REMARK  238  A    between atoms: _568  and  _571
REMARK  239  A    between atoms: _571  and  _572
REMARK  240  A    between atoms: _577  and  _579
REMARK  241  A    between atoms: _579  and  _580
REMARK  242  A    between atoms: _579  and  _582
REMARK  243  A    between atoms: _582  and  _583
REMARK  244  A    between atoms: _586  and  _588
REMARK  245  A    between atoms: _588  and  _589
REMARK  246  A    between atoms: _591  and  _593
REMARK  247  A    between atoms: _593  and  _594
REMARK  248  A    between atoms: _593  and  _596
REMARK  249  A    between atoms: _596  and  _597
REMARK  250  A    between atoms: _600  and  _602
REMARK  251  A    between atoms: _602  and  _603
REMARK  252  A    between atoms: _602  and  _605
REMARK                            x       y       z     vdW  Elec       q    Type
REMARK                         _______ _______ _______ _____ _____    ______ ____
ROOT
ATOM      1  O   HOH     1       3.926  44.779  10.834  0.00  0.00    +0.000 OA
ENDROOT
TORSDOF 0
REMARK  Name = ../refined-set-2016/3uri/3uri_pocket.pdb
REMARK  252 active torsions:
REMARK  status: ('A' for Active; 'I' for Inactive)
REMARK    1  A    between atoms: _1  and  _3
REMARK    2  A    between atoms: _3  and  _4
REMARK    3  A    between atoms: _3  and  _6
REMARK    4  A    between atoms: _6  and  _7
REMARK    5  A    between atoms: _10  and  _12
REMARK    6  A    between atoms: _12  and  _13
REMARK    7  A    between atoms: _12  and  _15
REMARK    8  A    between atoms: _15  and  _16
REMARK    9  A    between atoms: _19  and  _21
REMARK   10  A    between atoms: _21  and  _22
REMARK   11  A    between atoms: _21  and  _24
REMARK   12  A    between atoms: _24  and  _25
REMARK   13  A    between atoms: _28  and  _30
REMARK   14  A    between atoms: _30  and  _31
REMARK   15  A    between atoms: _30  and  _33
REMARK   16  A    between atoms: _33  and  _34
REMARK   17  A    between atoms: _37  and  _39
REMARK   18  A    between atoms: _39  and  _40
REMARK   19  A    between atoms: _39  and  _42
REMARK   20  A    between atoms: _42  and  _43
REMARK   21  A    between atoms: _46  and  _48
REMARK   22  A    between atoms: _48  and  _49
REMARK   23  A    between atoms: _52  and  _54
REMARK   24  A    between atoms: _54  and  _55
REMARK   25  A    between atoms: _54  and  _57
REMARK   26  A    between atoms: _57  and  _58
REMARK   27  A    between atoms: _63  and  _64
REMARK   28  A    between atoms: _66  and  _68
REMARK   29  A    between atoms: _68  and  _69
REMARK   30  A    between atoms: _68  and  _71
REMARK   31  A    between atoms: _71  and  _72
REMARK   32  A    between atoms: _75  and  _77
REMARK   33  A    between atoms: _77  and  _78
REMARK   34  A    between atoms: _77  and  _80
REMARK   35  A    between atoms: _80  and  _81
REMARK   36  A    between atoms: _84  and  _86
REMARK   37  A    between atoms: _86  and  _87
REMARK   38  A    between atoms: _86  and  _89
REMARK   39  A    between atoms: _89  and  _90
REMARK   40  A    between atoms: _96  and  _98
REMARK   41  A    between atoms: _98  and  _99
REMARK   42  A    between atoms: _98  and  _101
REMARK   43  A    between atoms: _101  and  _102
REMARK   44  A    between atoms: _105  and  _107
REMARK   45  A    between atoms: _107  and  _108
REMARK   46  A    between atoms: _107  and  _110
REMARK   47  A    between atoms: _110  and  _111
REMARK   48  A    between atoms: _114  and  _116
REMARK   49  A    between atoms: _116  and  _117
REMARK   50  A    between atoms: _119  and  _121
REMARK   51  A    between atoms: _121  and  _122
REMARK   52  A    between atoms: _121  and  _124
REMARK   53  A    between atoms: _124  and  _125
REMARK   54  A    between atoms: _127  and  _129
REMARK   55  A    between atoms: _129  and  _130
REMARK   56  A    between atoms: _129  and  _132
REMARK   57  A    between atoms: _132  and  _133
REMARK   58  A    between atoms: _135  and  _137
REMARK   59  A    between atoms: _137  and  _138
REMARK   60  A    between atoms: _137  and  _140
REMARK   61  A    between atoms: _140  and  _141
REMARK   62  A    between atoms: _144  and  _146
REMARK   63  A    between atoms: _146  and  _147
REMARK   64  A    between atoms: _146  and  _149
REMARK   65  A    between atoms: _149  and  _150
REMARK   66  A    between atoms: _160  and  _162
REMARK   67  A    between atoms: _162  and  _163
REMARK   68  A    between atoms: _162  and  _165
REMARK   69  A    between atoms: _165  and  _166
REMARK   70  A    between atoms: _168  and  _170
REMARK   71  A    between atoms: _170  and  _171
REMARK   72  A    between atoms: _170  and  _173
REMARK   73  A    between atoms: _173  and  _174
REMARK   74  A    between atoms: _177  and  _179
REMARK   75  A    between atoms: _179  and  _180
REMARK   76  A    between atoms: _179  and  _182
REMARK   77  A    between atoms: _182  and  _183
REMARK   78  A    between atoms: _185  and  _187
REMARK   79  A    between atoms: _187  and  _188
REMARK   80  A    between atoms: _187  and  _190
REMARK   81  A    between atoms: _190  and  _191
REMARK   82  A    between atoms: _196  and  _197
REMARK   83  A    between atoms: _199  and  _201
REMARK   84  A    between atoms: _201  and  _202
REMARK   85  A    between atoms: _204  and  _206
REMARK   86  A    between atoms: _206  and  _207
REMARK   87  A    between atoms: _206  and  _209
REMARK   88  A    between atoms: _209  and  _210
REMARK   89  A    between atoms: _213  and  _215
REMARK   90  A    between atoms: _215  and  _216
REMARK   91  A    between atoms: _218  and  _220
REMARK   92  A    between atoms: _220  and  _221
REMARK   93  A    between atoms: _220  and  _223
REMARK   94  A    between atoms: _223  and  _224
REMARK   95  A    between atoms: _226  and  _228
REMARK   96  A    between atoms: _228  and  _229
REMARK   97  A    between atoms: _228  and  _231
REMARK   98  A    between atoms: _231  and  _232
REMARK   99  A    between atoms: _234  and  _236
REMARK  100  A    between atoms: _236  and  _237
REMARK  101  A    between atoms: _236  and  _239
REMARK  102  A    between atoms: _239  and  _240
REMARK  103  A    between atoms: _242  and  _244
REMARK  104  A    between atoms: _244  and  _245
REMARK  105  A    between atoms: _244  and  _247
REMARK  106  A    between atoms: _247  and  _248
REMARK  107  A    between atoms: _250  and  _252
REMARK  108  A    between atoms: _252  and  _253
REMARK  109  A    between atoms: _252  and  _255
REMARK  110  A    between atoms: _255  and  _256
REMARK  111  A    between atoms: _262  and  _264
REMARK  112  A    between atoms: _264  and  _265
REMARK  113  A    between atoms: _264  and  _267
REMARK  114  A    between atoms: _267  and  _268
REMARK  115  A    between atoms: _268  and  _269
REMARK  116  A    between atoms: _272  and  _274
REMARK  117  A    between atoms: _274  and  _275
REMARK  118  A    between atoms: _274  and  _277
REMARK  119  A    between atoms: _277  and  _278
REMARK  120  A    between atoms: _281  and  _283
REMARK  121  A    between atoms: _283  and  _284
REMARK  122  A    between atoms: _283  and  _286
REMARK  123  A    between atoms: _286  and  _287
REMARK  124  A    between atoms: _290  and  _292
REMARK  125  A    between atoms: _292  and  _293
REMARK  126  A    between atoms: _292  and  _295
REMARK  127  A    between atoms: _295  and  _296
REMARK  128  A    between atoms: _299  and  _301
REMARK  129  A    between atoms: _301  and  _302
REMARK  130  A    between atoms: _304  and  _306
REMARK  131  A    between atoms: _306  and  _307
REMARK  132  A    between atoms: _306  and  _309
REMARK  133  A    between atoms: _309  and  _310
REMARK  134  A    between atoms: _313  and  _315
REMARK  135  A    between atoms: _315  and  _316
REMARK  136  A    between atoms: _315  and  _318
REMARK  137  A    between atoms: _318  and  _319
REMARK  138  A    between atoms: _322  and  _324
REMARK  139  A    between atoms: _324  and  _325
REMARK  140  A    between atoms: _328  and  _330
REMARK  141  A    between atoms: _330  and  _331
REMARK  142  A    between atoms: _330  and  _333
REMARK  143  A    between atoms: _333  and  _334
REMARK  144  A    between atoms: _337  and  _339
REMARK  145  A    between atoms: _339  and  _340
REMARK  146  A    between atoms: _339  and  _342
REMARK  147  A    between atoms: _342  and  _343
REMARK  148  A    between atoms: _348  and  _350
REMARK  149  A    between atoms: _350  and  _351
REMARK  150  A    between atoms: _350  and  _353
REMARK  151  A    between atoms: _353  and  _354
REMARK  152  A    between atoms: _357  and  _359
REMARK  153  A    between atoms: _359  and  _360
REMARK  154  A    between atoms: _359  and  _362
REMARK  155  A    between atoms: _362  and  _363
REMARK  156  A    between atoms: _363  and  _364
REMARK  157  A    between atoms: _369  and  _371
REMARK  158  A    between atoms: _371  and  _372
REMARK  159  A    between atoms: _374  and  _376
REMARK  160  A    between atoms: _376  and  _377
REMARK  161  A    between atoms: _376  and  _379
REMARK  162  A    between atoms: _379  and  _380
REMARK  163  A    between atoms: _386  and  _388
REMARK  164  A    between atoms: _388  and  _389
REMARK  165  A    between atoms: _388  and  _391
REMARK  166  A    between atoms: _391  and  _392
REMARK  167  A    between atoms: _395  and  _397
REMARK  168  A    between atoms: _397  and  _398
REMARK  169  A    between atoms: _401  and  _403
REMARK  170  A    between atoms: _403  and  _404
REMARK  171  A    between atoms: _403  and  _406
REMARK  172  A    between atoms: _406  and  _407
REMARK  173  A    between atoms: _410  and  _412
REMARK  174  A    between atoms: _412  and  _413
REMARK  175  A    between atoms: _412  and  _415
REMARK  176  A    between atoms: _415  and  _416
REMARK  177  A    between atoms: _419  and  _421
REMARK  178  A    between atoms: _421  and  _422
REMARK  179  A    between atoms: _424  and  _426
REMARK  180  A    between atoms: _426  and  _427
REMARK  181  A    between atoms: _426  and  _429
REMARK  182  A    between atoms: _429  and  _430
REMARK  183  A    between atoms: _433  and  _435
REMARK  184  A    between atoms: _435  and  _436
REMARK  185  A    between atoms: _435  and  _438
REMARK  186  A    between atoms: _438  and  _439
REMARK  187  A    between atoms: _442  and  _444
REMARK  188  A    between atoms: _444  and  _445
REMARK  189  A    between atoms: _444  and  _447
REMARK  190  A    between atoms: _447  and  _448
REMARK  191  A    between atoms: _451  and  _453
REMARK  192  A    between atoms: _453  and  _454
REMARK  193  A    between atoms: _453  and  _456
REMARK  194  A    between atoms: _456  and  _457
REMARK  195  A    between atoms: _460  and  _462
REMARK  196  A    between atoms: _462  and  _463
REMARK  197  A    between atoms: _462  and  _465
REMARK  198  A    between atoms: _465  and  _466
REMARK  199  A    between atoms: _471  and  _472
REMARK  200  A    between atoms: _474  and  _476
REMARK  201  A    between atoms: _476  and  _477
REMARK  202  A    between atoms: _476  and  _479
REMARK  203  A    between atoms: _482  and  _484
REMARK  204  A    between atoms: _484  and  _485
REMARK  205  A    between atoms: _487  and  _489
REMARK  206  A    between atoms: _489  and  _490
REMARK  207  A    between atoms: _489  and  _492
REMARK  208  A    between atoms: _492  and  _493
REMARK  209  A    between atoms: _499  and  _501
REMARK  210  A    between atoms: _501  and  _502
REMARK  211  A    between atoms: _504  and  _506
REMARK  212  A    between atoms: _506  and  _507
REMARK  213  A    between atoms: _506  and  _509
REMARK  214  A    between atoms: _509  and  _510
REMARK  215  A    between atoms: _516  and  _518
REMARK  216  A    between atoms: _518  and  _519
REMARK  217  A    between atoms: _521  and  _523
REMARK  218  A    between atoms: _523  and  _524
REMARK  219  A    between atoms: _526  and  _528
REMARK  220  A    between atoms: _528  and  _529
REMARK  221  A    between atoms: _528  and  _531
REMARK  222  A    between atoms: _531  and  _532
REMARK  223  A    between atoms: _532  and  _533
REMARK  224  A    between atoms: _538  and  _540
REMARK  225  A    between atoms: _540  and  _541
REMARK  226  A    between atoms: _543  and  _545
REMARK  227  A    between atoms: _545  and  _546
REMARK  228  A    between atoms: _545  and  _548
REMARK  229  A    between atoms: _548  and  _549
REMARK  230  A    between atoms: _552  and  _554
REMARK  231  A    between atoms: _554  and  _555
REMARK  232  A    between atoms: _557  and  _559
REMARK  233  A    between atoms: _559  and  _560
REMARK  234  A    between atoms: _559  and  _562
REMARK  235  A    between atoms: _562  and  _563
REMARK  236  A    between atoms: _566  and  _568
REMARK  237  A    between atoms: _568  and  _569
REMARK  238  A    between atoms: _568  and  _571
REMARK  239  A    between atoms: _571  and  _572
REMARK  240  A    between atoms: _577  and  _579
REMARK  241  A    between atoms: _579  and  _580
REMARK  242  A    between atoms: _579  and  _582
REMARK  243  A    between atoms: _582  and  _583
REMARK  244  A    between atoms: _586  and  _588
REMARK  245  A    between atoms: _588  and  _589
REMARK  246  A    between atoms: _591  and  _593
REMARK  247  A    between atoms: _593  and  _594
REMARK  248  A    between atoms: _593  and  _596
REMARK  249  A    between atoms: _596  and  _597
REMARK  250  A    between atoms: _600  and  _602
REMARK  251  A    between atoms: _602  and  _603
REMARK  252  A    between atoms: _602  and  _605
REMARK                            x       y       z     vdW  Elec       q    Type
REMARK                         _______ _______ _______ _____ _____    ______ ____
ROOT
ATOM      1  O   HOH     1       0.179  41.537   6.981  0.00  0.00    +0.000 OA
ENDROOT
TORSDOF 0
REMARK  Name = ../refined-set-2016/3uri/3uri_pocket.pdb
REMARK  252 active torsions:
REMARK  status: ('A' for Active; 'I' for Inactive)
REMARK    1  A    between atoms: _1  and  _3
REMARK    2  A    between atoms: _3  and  _4
REMARK    3  A    between atoms: _3  and  _6
REMARK    4  A    between atoms: _6  and  _7
REMARK    5  A    between atoms: _10  and  _12
REMARK    6  A    between atoms: _12  and  _13
REMARK    7  A    between atoms: _12  and  _15
REMARK    8  A    between atoms: _15  and  _16
REMARK    9  A    between atoms: _19  and  _21
REMARK   10  A    between atoms: _21  and  _22
REMARK   11  A    between atoms: _21  and  _24
REMARK   12  A    between atoms: _24  and  _25
REMARK   13  A    between atoms: _28  and  _30
REMARK   14  A    between atoms: _30  and  _31
REMARK   15  A    between atoms: _30  and  _33
REMARK   16  A    between atoms: _33  and  _34
REMARK   17  A    between atoms: _37  and  _39
REMARK   18  A    between atoms: _39  and  _40
REMARK   19  A    between atoms: _39  and  _42
REMARK   20  A    between atoms: _42  and  _43
REMARK   21  A    between atoms: _46  and  _48
REMARK   22  A    between atoms: _48  and  _49
REMARK   23  A    between atoms: _52  and  _54
REMARK   24  A    between atoms: _54  and  _55
REMARK   25  A    between atoms: _54  and  _57
REMARK   26  A    between atoms: _57  and  _58
REMARK   27  A    between atoms: _63  and  _64
REMARK   28  A    between atoms: _66  and  _68
REMARK   29  A    between atoms: _68  and  _69
REMARK   30  A    between atoms: _68  and  _71
REMARK   31  A    between atoms: _71  and  _72
REMARK   32  A    between atoms: _75  and  _77
REMARK   33  A    between atoms: _77  and  _78
REMARK   34  A    between atoms: _77  and  _80
REMARK   35  A    between atoms: _80  and  _81
REMARK   36  A    between atoms: _84  and  _86
REMARK   37  A    between atoms: _86  and  _87
REMARK   38  A    between atoms: _86  and  _89
REMARK   39  A    between atoms: _89  and  _90
REMARK   40  A    between atoms: _96  and  _98
REMARK   41  A    between atoms: _98  and  _99
REMARK   42  A    between atoms: _98  and  _101
REMARK   43  A    between atoms: _101  and  _102
REMARK   44  A    between atoms: _105  and  _107
REMARK   45  A    between atoms: _107  and  _108
REMARK   46  A    between atoms: _107  and  _110
REMARK   47  A    between atoms: _110  and  _111
REMARK   48  A    between atoms: _114  and  _116
REMARK   49  A    between atoms: _116  and  _117
REMARK   50  A    between atoms: _119  and  _121
REMARK   51  A    between atoms: _121  and  _122
REMARK   52  A    between atoms: _121  and  _124
REMARK   53  A    between atoms: _124  and  _125
REMARK   54  A    between atoms: _127  and  _129
REMARK   55  A    between atoms: _129  and  _130
REMARK   56  A    between atoms: _129  and  _132
REMARK   57  A    between atoms: _132  and  _133
REMARK   58  A    between atoms: _135  and  _137
REMARK   59  A    between atoms: _137  and  _138
REMARK   60  A    between atoms: _137  and  _140
REMARK   61  A    between atoms: _140  and  _141
REMARK   62  A    between atoms: _144  and  _146
REMARK   63  A    between atoms: _146  and  _147
REMARK   64  A    between atoms: _146  and  _149
REMARK   65  A    between atoms: _149  and  _150
REMARK   66  A    between atoms: _160  and  _162
REMARK   67  A    between atoms: _162  and  _163
REMARK   68  A    between atoms: _162  and  _165
REMARK   69  A    between atoms: _165  and  _166
REMARK   70  A    between atoms: _168  and  _170
REMARK   71  A    between atoms: _170  and  _171
REMARK   72  A    between atoms: _170  and  _173
REMARK   73  A    between atoms: _173  and  _174
REMARK   74  A    between atoms: _177  and  _179
REMARK   75  A    between atoms: _179  and  _180
REMARK   76  A    between atoms: _179  and  _182
REMARK   77  A    between atoms: _182  and  _183
REMARK   78  A    between atoms: _185  and  _187
REMARK   79  A    between atoms: _187  and  _188
REMARK   80  A    between atoms: _187  and  _190
REMARK   81  A    between atoms: _190  and  _191
REMARK   82  A    between atoms: _196  and  _197
REMARK   83  A    between atoms: _199  and  _201
REMARK   84  A    between atoms: _201  and  _202
REMARK   85  A    between atoms: _204  and  _206
REMARK   86  A    between atoms: _206  and  _207
REMARK   87  A    between atoms: _206  and  _209
REMARK   88  A    between atoms: _209  and  _210
REMARK   89  A    between atoms: _213  and  _215
REMARK   90  A    between atoms: _215  and  _216
REMARK   91  A    between atoms: _218  and  _220
REMARK   92  A    between atoms: _220  and  _221
REMARK   93  A    between atoms: _220  and  _223
REMARK   94  A    between atoms: _223  and  _224
REMARK   95  A    between atoms: _226  and  _228
REMARK   96  A    between atoms: _228  and  _229
REMARK   97  A    between atoms: _228  and  _231
REMARK   98  A    between atoms: _231  and  _232
REMARK   99  A    between atoms: _234  and  _236
REMARK  100  A    between atoms: _236  and  _237
REMARK  101  A    between atoms: _236  and  _239
REMARK  102  A    between atoms: _239  and  _240
REMARK  103  A    between atoms: _242  and  _244
REMARK  104  A    between atoms: _244  and  _245
REMARK  105  A    between atoms: _244  and  _247
REMARK  106  A    between atoms: _247  and  _248
REMARK  107  A    between atoms: _250  and  _252
REMARK  108  A    between atoms: _252  and  _253
REMARK  109  A    between atoms: _252  and  _255
REMARK  110  A    between atoms: _255  and  _256
REMARK  111  A    between atoms: _262  and  _264
REMARK  112  A    between atoms: _264  and  _265
REMARK  113  A    between atoms: _264  and  _267
REMARK  114  A    between atoms: _267  and  _268
REMARK  115  A    between atoms: _268  and  _269
REMARK  116  A    between atoms: _272  and  _274
REMARK  117  A    between atoms: _274  and  _275
REMARK  118  A    between atoms: _274  and  _277
REMARK  119  A    between atoms: _277  and  _278
REMARK  120  A    between atoms: _281  and  _283
REMARK  121  A    between atoms: _283  and  _284
REMARK  122  A    between atoms: _283  and  _286
REMARK  123  A    between atoms: _286  and  _287
REMARK  124  A    between atoms: _290  and  _292
REMARK  125  A    between atoms: _292  and  _293
REMARK  126  A    between atoms: _292  and  _295
REMARK  127  A    between atoms: _295  and  _296
REMARK  128  A    between atoms: _299  and  _301
REMARK  129  A    between atoms: _301  and  _302
REMARK  130  A    between atoms: _304  and  _306
REMARK  131  A    between atoms: _306  and  _307
REMARK  132  A    between atoms: _306  and  _309
REMARK  133  A    between atoms: _309  and  _310
REMARK  134  A    between atoms: _313  and  _315
REMARK  135  A    between atoms: _315  and  _316
REMARK  136  A    between atoms: _315  and  _318
REMARK  137  A    between atoms: _318  and  _319
REMARK  138  A    between atoms: _322  and  _324
REMARK  139  A    between atoms: _324  and  _325
REMARK  140  A    between atoms: _328  and  _330
REMARK  141  A    between atoms: _330  and  _331
REMARK  142  A    between atoms: _330  and  _333
REMARK  143  A    between atoms: _333  and  _334
REMARK  144  A    between atoms: _337  and  _339
REMARK  145  A    between atoms: _339  and  _340
REMARK  146  A    between atoms: _339  and  _342
REMARK  147  A    between atoms: _342  and  _343
REMARK  148  A    between atoms: _348  and  _350
REMARK  149  A    between atoms: _350  and  _351
REMARK  150  A    between atoms: _350  and  _353
REMARK  151  A    between atoms: _353  and  _354
REMARK  152  A    between atoms: _357  and  _359
REMARK  153  A    between atoms: _359  and  _360
REMARK  154  A    between atoms: _359  and  _362
REMARK  155  A    between atoms: _362  and  _363
REMARK  156  A    between atoms: _363  and  _364
REMARK  157  A    between atoms: _369  and  _371
REMARK  158  A    between atoms: _371  and  _372
REMARK  159  A    between atoms: _374  and  _376
REMARK  160  A    between atoms: _376  and  _377
REMARK  161  A    between atoms: _376  and  _379
REMARK  162  A    between atoms: _379  and  _380
REMARK  163  A    between atoms: _386  and  _388
REMARK  164  A    between atoms: _388  and  _389
REMARK  165  A    between atoms: _388  and  _391
REMARK  166  A    between atoms: _391  and  _392
REMARK  167  A    between atoms: _395  and  _397
REMARK  168  A    between atoms: _397  and  _398
REMARK  169  A    between atoms: _401  and  _403
REMARK  170  A    between atoms: _403  and  _404
REMARK  171  A    between atoms: _403  and  _406
REMARK  172  A    between atoms: _406  and  _407
REMARK  173  A    between atoms: _410  and  _412
REMARK  174  A    between atoms: _412  and  _413
REMARK  175  A    between atoms: _412  and  _415
REMARK  176  A    between atoms: _415  and  _416
REMARK  177  A    between atoms: _419  and  _421
REMARK  178  A    between atoms: _421  and  _422
REMARK  179  A    between atoms: _424  and  _426
REMARK  180  A    between atoms: _426  and  _427
REMARK  181  A    between atoms: _426  and  _429
REMARK  182  A    between atoms: _429  and  _430
REMARK  183  A    between atoms: _433  and  _435
REMARK  184  A    between atoms: _435  and  _436
REMARK  185  A    between atoms: _435  and  _438
REMARK  186  A    between atoms: _438  and  _439
REMARK  187  A    between atoms: _442  and  _444
REMARK  188  A    between atoms: _444  and  _445
REMARK  189  A    between atoms: _444  and  _447
REMARK  190  A    between atoms: _447  and  _448
REMARK  191  A    between atoms: _451  and  _453
REMARK  192  A    between atoms: _453  and  _454
REMARK  193  A    between atoms: _453  and  _456
REMARK  194  A    between atoms: _456  and  _457
REMARK  195  A    between atoms: _460  and  _462
REMARK  196  A    between atoms: _462  and  _463
REMARK  197  A    between atoms: _462  and  _465
REMARK  198  A    between atoms: _465  and  _466
REMARK  199  A    between atoms: _471  and  _472
REMARK  200  A    between atoms: _474  and  _476
REMARK  201  A    between atoms: _476  and  _477
REMARK  202  A    between atoms: _476  and  _479
REMARK  203  A    between atoms: _482  and  _484
REMARK  204  A    between atoms: _484  and  _485
REMARK  205  A    between atoms: _487  and  _489
REMARK  206  A    between atoms: _489  and  _490
REMARK  207  A    between atoms: _489  and  _492
REMARK  208  A    between atoms: _492  and  _493
REMARK  209  A    between atoms: _499  and  _501
REMARK  210  A    between atoms: _501  and  _502
REMARK  211  A    between atoms: _504  and  _506
REMARK  212  A    between atoms: _506  and  _507
REMARK  213  A    between atoms: _506  and  _509
REMARK  214  A    between atoms: _509  and  _510
REMARK  215  A    between atoms: _516  and  _518
REMARK  216  A    between atoms: _518  and  _519
REMARK  217  A    between atoms: _521  and  _523
REMARK  218  A    between atoms: _523  and  _524
REMARK  219  A    between atoms: _526  and  _528
REMARK  220  A    between atoms: _528  and  _529
REMARK  221  A    between atoms: _528  and  _531
REMARK  222  A    between atoms: _531  and  _532
REMARK  223  A    between atoms: _532  and  _533
REMARK  224  A    between atoms: _538  and  _540
REMARK  225  A    between atoms: _540  and  _541
REMARK  226  A    between atoms: _543  and  _545
REMARK  227  A    between atoms: _545  and  _546
REMARK  228  A    between atoms: _545  and  _548
REMARK  229  A    between atoms: _548  and  _549
REMARK  230  A    between atoms: _552  and  _554
REMARK  231  A    between atoms: _554  and  _555
REMARK  232  A    between atoms: _557  and  _559
REMARK  233  A    between atoms: _559  and  _560
REMARK  234  A    between atoms: _559  and  _562
REMARK  235  A    between atoms: _562  and  _563
REMARK  236  A    between atoms: _566  and  _568
REMARK  237  A    between atoms: _568  and  _569
REMARK  238  A    between atoms: _568  and  _571
REMARK  239  A    between atoms: _571  and  _572
REMARK  240  A    between atoms: _577  and  _579
REMARK  241  A    between atoms: _579  and  _580
REMARK  242  A    between atoms: _579  and  _582
REMARK  243  A    between atoms: _582  and  _583
REMARK  244  A    between atoms: _586  and  _588
REMARK  245  A    between atoms: _588  and  _589
REMARK  246  A    between atoms: _591  and  _593
REMARK  247  A    between atoms: _593  and  _594
REMARK  248  A    between atoms: _593  and  _596
REMARK  249  A    between atoms: _596  and  _597
REMARK  250  A    between atoms: _600  and  _602
REMARK  251  A    between atoms: _602  and  _603
REMARK  252  A    between atoms: _602  and  _605
REMARK                            x       y       z     vdW  Elec       q    Type
REMARK                         _______ _______ _______ _____ _____    ______ ____
ROOT
ATOM      1  O   HOH     1      -1.421  43.587  18.802  0.00  0.00    +0.000 OA
ENDROOT
TORSDOF 0
REMARK  Name = ../refined-set-2016/3uri/3uri_pocket.pdb
REMARK  252 active torsions:
REMARK  status: ('A' for Active; 'I' for Inactive)
REMARK    1  A    between atoms: _1  and  _3
REMARK    2  A    between atoms: _3  and  _4
REMARK    3  A    between atoms: _3  and  _6
REMARK    4  A    between atoms: _6  and  _7
REMARK    5  A    between atoms: _10  and  _12
REMARK    6  A    between atoms: _12  and  _13
REMARK    7  A    between atoms: _12  and  _15
REMARK    8  A    between atoms: _15  and  _16
REMARK    9  A    between atoms: _19  and  _21
REMARK   10  A    between atoms: _21  and  _22
REMARK   11  A    between atoms: _21  and  _24
REMARK   12  A    between atoms: _24  and  _25
REMARK   13  A    between atoms: _28  and  _30
REMARK   14  A    between atoms: _30  and  _31
REMARK   15  A    between atoms: _30  and  _33
REMARK   16  A    between atoms: _33  and  _34
REMARK   17  A    between atoms: _37  and  _39
REMARK   18  A    between atoms: _39  and  _40
REMARK   19  A    between atoms: _39  and  _42
REMARK   20  A    between atoms: _42  and  _43
REMARK   21  A    between atoms: _46  and  _48
REMARK   22  A    between atoms: _48  and  _49
REMARK   23  A    between atoms: _52  and  _54
REMARK   24  A    between atoms: _54  and  _55
REMARK   25  A    between atoms: _54  and  _57
REMARK   26  A    between atoms: _57  and  _58
REMARK   27  A    between atoms: _63  and  _64
REMARK   28  A    between atoms: _66  and  _68
REMARK   29  A    between atoms: _68  and  _69
REMARK   30  A    between atoms: _68  and  _71
REMARK   31  A    between atoms: _71  and  _72
REMARK   32  A    between atoms: _75  and  _77
REMARK   33  A    between atoms: _77  and  _78
REMARK   34  A    between atoms: _77  and  _80
REMARK   35  A    between atoms: _80  and  _81
REMARK   36  A    between atoms: _84  and  _86
REMARK   37  A    between atoms: _86  and  _87
REMARK   38  A    between atoms: _86  and  _89
REMARK   39  A    between atoms: _89  and  _90
REMARK   40  A    between atoms: _96  and  _98
REMARK   41  A    between atoms: _98  and  _99
REMARK   42  A    between atoms: _98  and  _101
REMARK   43  A    between atoms: _101  and  _102
REMARK   44  A    between atoms: _105  and  _107
REMARK   45  A    between atoms: _107  and  _108
REMARK   46  A    between atoms: _107  and  _110
REMARK   47  A    between atoms: _110  and  _111
REMARK   48  A    between atoms: _114  and  _116
REMARK   49  A    between atoms: _116  and  _117
REMARK   50  A    between atoms: _119  and  _121
REMARK   51  A    between atoms: _121  and  _122
REMARK   52  A    between atoms: _121  and  _124
REMARK   53  A    between atoms: _124  and  _125
REMARK   54  A    between atoms: _127  and  _129
REMARK   55  A    between atoms: _129  and  _130
REMARK   56  A    between atoms: _129  and  _132
REMARK   57  A    between atoms: _132  and  _133
REMARK   58  A    between atoms: _135  and  _137
REMARK   59  A    between atoms: _137  and  _138
REMARK   60  A    between atoms: _137  and  _140
REMARK   61  A    between atoms: _140  and  _141
REMARK   62  A    between atoms: _144  and  _146
REMARK   63  A    between atoms: _146  and  _147
REMARK   64  A    between atoms: _146  and  _149
REMARK   65  A    between atoms: _149  and  _150
REMARK   66  A    between atoms: _160  and  _162
REMARK   67  A    between atoms: _162  and  _163
REMARK   68  A    between atoms: _162  and  _165
REMARK   69  A    between atoms: _165  and  _166
REMARK   70  A    between atoms: _168  and  _170
REMARK   71  A    between atoms: _170  and  _171
REMARK   72  A    between atoms: _170  and  _173
REMARK   73  A    between atoms: _173  and  _174
REMARK   74  A    between atoms: _177  and  _179
REMARK   75  A    between atoms: _179  and  _180
REMARK   76  A    between atoms: _179  and  _182
REMARK   77  A    between atoms: _182  and  _183
REMARK   78  A    between atoms: _185  and  _187
REMARK   79  A    between atoms: _187  and  _188
REMARK   80  A    between atoms: _187  and  _190
REMARK   81  A    between atoms: _190  and  _191
REMARK   82  A    between atoms: _196  and  _197
REMARK   83  A    between atoms: _199  and  _201
REMARK   84  A    between atoms: _201  and  _202
REMARK   85  A    between atoms: _204  and  _206
REMARK   86  A    between atoms: _206  and  _207
REMARK   87  A    between atoms: _206  and  _209
REMARK   88  A    between atoms: _209  and  _210
REMARK   89  A    between atoms: _213  and  _215
REMARK   90  A    between atoms: _215  and  _216
REMARK   91  A    between atoms: _218  and  _220
REMARK   92  A    between atoms: _220  and  _221
REMARK   93  A    between atoms: _220  and  _223
REMARK   94  A    between atoms: _223  and  _224
REMARK   95  A    between atoms: _226  and  _228
REMARK   96  A    between atoms: _228  and  _229
REMARK   97  A    between atoms: _228  and  _231
REMARK   98  A    between atoms: _231  and  _232
REMARK   99  A    between atoms: _234  and  _236
REMARK  100  A    between atoms: _236  and  _237
REMARK  101  A    between atoms: _236  and  _239
REMARK  102  A    between atoms: _239  and  _240
REMARK  103  A    between atoms: _242  and  _244
REMARK  104  A    between atoms: _244  and  _245
REMARK  105  A    between atoms: _244  and  _247
REMARK  106  A    between atoms: _247  and  _248
REMARK  107  A    between atoms: _250  and  _252
REMARK  108  A    between atoms: _252  and  _253
REMARK  109  A    between atoms: _252  and  _255
REMARK  110  A    between atoms: _255  and  _256
REMARK  111  A    between atoms: _262  and  _264
REMARK  112  A    between atoms: _264  and  _265
REMARK  113  A    between atoms: _264  and  _267
REMARK  114  A    between atoms: _267  and  _268
REMARK  115  A    between atoms: _268  and  _269
REMARK  116  A    between atoms: _272  and  _274
REMARK  117  A    between atoms: _274  and  _275
REMARK  118  A    between atoms: _274  and  _277
REMARK  119  A    between atoms: _277  and  _278
REMARK  120  A    between atoms: _281  and  _283
REMARK  121  A    between atoms: _283  and  _284
REMARK  122  A    between atoms: _283  and  _286
REMARK  123  A    between atoms: _286  and  _287
REMARK  124  A    between atoms: _290  and  _292
REMARK  125  A    between atoms: _292  and  _293
REMARK  126  A    between atoms: _292  and  _295
REMARK  127  A    between atoms: _295  and  _296
REMARK  128  A    between atoms: _299  and  _301
REMARK  129  A    between atoms: _301  and  _302
REMARK  130  A    between atoms: _304  and  _306
REMARK  131  A    between atoms: _306  and  _307
REMARK  132  A    between atoms: _306  and  _309
REMARK  133  A    between atoms: _309  and  _310
REMARK  134  A    between atoms: _313  and  _315
REMARK  135  A    between atoms: _315  and  _316
REMARK  136  A    between atoms: _315  and  _318
REMARK  137  A    between atoms: _318  and  _319
REMARK  138  A    between atoms: _322  and  _324
REMARK  139  A    between atoms: _324  and  _325
REMARK  140  A    between atoms: _328  and  _330
REMARK  141  A    between atoms: _330  and  _331
REMARK  142  A    between atoms: _330  and  _333
REMARK  143  A    between atoms: _333  and  _334
REMARK  144  A    between atoms: _337  and  _339
REMARK  145  A    between atoms: _339  and  _340
REMARK  146  A    between atoms: _339  and  _342
REMARK  147  A    between atoms: _342  and  _343
REMARK  148  A    between atoms: _348  and  _350
REMARK  149  A    between atoms: _350  and  _351
REMARK  150  A    between atoms: _350  and  _353
REMARK  151  A    between atoms: _353  and  _354
REMARK  152  A    between atoms: _357  and  _359
REMARK  153  A    between atoms: _359  and  _360
REMARK  154  A    between atoms: _359  and  _362
REMARK  155  A    between atoms: _362  and  _363
REMARK  156  A    between atoms: _363  and  _364
REMARK  157  A    between atoms: _369  and  _371
REMARK  158  A    between atoms: _371  and  _372
REMARK  159  A    between atoms: _374  and  _376
REMARK  160  A    between atoms: _376  and  _377
REMARK  161  A    between atoms: _376  and  _379
REMARK  162  A    between atoms: _379  and  _380
REMARK  163  A    between atoms: _386  and  _388
REMARK  164  A    between atoms: _388  and  _389
REMARK  165  A    between atoms: _388  and  _391
REMARK  166  A    between atoms: _391  and  _392
REMARK  167  A    between atoms: _395  and  _397
REMARK  168  A    between atoms: _397  and  _398
REMARK  169  A    between atoms: _401  and  _403
REMARK  170  A    between atoms: _403  and  _404
REMARK  171  A    between atoms: _403  and  _406
REMARK  172  A    between atoms: _406  and  _407
REMARK  173  A    between atoms: _410  and  _412
REMARK  174  A    between atoms: _412  and  _413
REMARK  175  A    between atoms: _412  and  _415
REMARK  176  A    between atoms: _415  and  _416
REMARK  177  A    between atoms: _419  and  _421
REMARK  178  A    between atoms: _421  and  _422
REMARK  179  A    between atoms: _424  and  _426
REMARK  180  A    between atoms: _426  and  _427
REMARK  181  A    between atoms: _426  and  _429
REMARK  182  A    between atoms: _429  and  _430
REMARK  183  A    between atoms: _433  and  _435
REMARK  184  A    between atoms: _435  and  _436
REMARK  185  A    between atoms: _435  and  _438
REMARK  186  A    between atoms: _438  and  _439
REMARK  187  A    between atoms: _442  and  _444
REMARK  188  A    between atoms: _444  and  _445
REMARK  189  A    between atoms: _444  and  _447
REMARK  190  A    between atoms: _447  and  _448
REMARK  191  A    between atoms: _451  and  _453
REMARK  192  A    between atoms: _453  and  _454
REMARK  193  A    between atoms: _453  and  _456
REMARK  194  A    between atoms: _456  and  _457
REMARK  195  A    between atoms: _460  and  _462
REMARK  196  A    between atoms: _462  and  _463
REMARK  197  A    between atoms: _462  and  _465
REMARK  198  A    between atoms: _465  and  _466
REMARK  199  A    between atoms: _471  and  _472
REMARK  200  A    between atoms: _474  and  _476
REMARK  201  A    between atoms: _476  and  _477
REMARK  202  A    between atoms: _476  and  _479
REMARK  203  A    between atoms: _482  and  _484
REMARK  204  A    between atoms: _484  and  _485
REMARK  205  A    between atoms: _487  and  _489
REMARK  206  A    between atoms: _489  and  _490
REMARK  207  A    between atoms: _489  and  _492
REMARK  208  A    between atoms: _492  and  _493
REMARK  209  A    between atoms: _499  and  _501
REMARK  210  A    between atoms: _501  and  _502
REMARK  211  A    between atoms: _504  and  _506
REMARK  212  A    between atoms: _506  and  _507
REMARK  213  A    between atoms: _506  and  _509
REMARK  214  A    between atoms: _509  and  _510
REMARK  215  A    between atoms: _516  and  _518
REMARK  216  A    between atoms: _518  and  _519
REMARK  217  A    between atoms: _521  and  _523
REMARK  218  A    between atoms: _523  and  _524
REMARK  219  A    between atoms: _526  and  _528
REMARK  220  A    between atoms: _528  and  _529
REMARK  221  A    between atoms: _528  and  _531
REMARK  222  A    between atoms: _531  and  _532
REMARK  223  A    between atoms: _532  and  _533
REMARK  224  A    between atoms: _538  and  _540
REMARK  225  A    between atoms: _540  and  _541
REMARK  226  A    between atoms: _543  and  _545
REMARK  227  A    between atoms: _545  and  _546
REMARK  228  A    between atoms: _545  and  _548
REMARK  229  A    between atoms: _548  and  _549
REMARK  230  A    between atoms: _552  and  _554
REMARK  231  A    between atoms: _554  and  _555
REMARK  232  A    between atoms: _557  and  _559
REMARK  233  A    between atoms: _559  and  _560
REMARK  234  A    between atoms: _559  and  _562
REMARK  235  A    between atoms: _562  and  _563
REMARK  236  A    between atoms: _566  and  _568
REMARK  237  A    between atoms: _568  and  _569
REMARK  238  A    between atoms: _568  and  _571
REMARK  239  A    between atoms: _571  and  _572
REMARK  240  A    between atoms: _577  and  _579
REMARK  241  A    between atoms: _579  and  _580
REMARK  242  A    between atoms: _579  and  _582
REMARK  243  A    between atoms: _582  and  _583
REMARK  244  A    between atoms: _586  and  _588
REMARK  245  A    between atoms: _588  and  _589
REMARK  246  A    between atoms: _591  and  _593
REMARK  247  A    between atoms: _593  and  _594
REMARK  248  A    between atoms: _593  and  _596
REMARK  249  A    between atoms: _596  and  _597
REMARK  250  A    between atoms: _600  and  _602
REMARK  251  A    between atoms: _602  and  _603
REMARK  252  A    between atoms: _602  and  _605
REMARK                            x       y       z     vdW  Elec       q    Type
REMARK                         _______ _______ _______ _____ _____    ______ ____
ROOT
ATOM      1  O   HOH     1      -4.303  43.124  18.524  0.00  0.00    +0.000 OA
ENDROOT
TORSDOF 0
REMARK  Name = ../refined-set-2016/3uri/3uri_pocket.pdb
REMARK  252 active torsions:
REMARK  status: ('A' for Active; 'I' for Inactive)
REMARK    1  A    between atoms: _1  and  _3
REMARK    2  A    between atoms: _3  and  _4
REMARK    3  A    between atoms: _3  and  _6
REMARK    4  A    between atoms: _6  and  _7
REMARK    5  A    between atoms: _10  and  _12
REMARK    6  A    between atoms: _12  and  _13
REMARK    7  A    between atoms: _12  and  _15
REMARK    8  A    between atoms: _15  and  _16
REMARK    9  A    between atoms: _19  and  _21
REMARK   10  A    between atoms: _21  and  _22
REMARK   11  A    between atoms: _21  and  _24
REMARK   12  A    between atoms: _24  and  _25
REMARK   13  A    between atoms: _28  and  _30
REMARK   14  A    between atoms: _30  and  _31
REMARK   15  A    between atoms: _30  and  _33
REMARK   16  A    between atoms: _33  and  _34
REMARK   17  A    between atoms: _37  and  _39
REMARK   18  A    between atoms: _39  and  _40
REMARK   19  A    between atoms: _39  and  _42
REMARK   20  A    between atoms: _42  and  _43
REMARK   21  A    between atoms: _46  and  _48
REMARK   22  A    between atoms: _48  and  _49
REMARK   23  A    between atoms: _52  and  _54
REMARK   24  A    between atoms: _54  and  _55
REMARK   25  A    between atoms: _54  and  _57
REMARK   26  A    between atoms: _57  and  _58
REMARK   27  A    between atoms: _63  and  _64
REMARK   28  A    between atoms: _66  and  _68
REMARK   29  A    between atoms: _68  and  _69
REMARK   30  A    between atoms: _68  and  _71
REMARK   31  A    between atoms: _71  and  _72
REMARK   32  A    between atoms: _75  and  _77
REMARK   33  A    between atoms: _77  and  _78
REMARK   34  A    between atoms: _77  and  _80
REMARK   35  A    between atoms: _80  and  _81
REMARK   36  A    between atoms: _84  and  _86
REMARK   37  A    between atoms: _86  and  _87
REMARK   38  A    between atoms: _86  and  _89
REMARK   39  A    between atoms: _89  and  _90
REMARK   40  A    between atoms: _96  and  _98
REMARK   41  A    between atoms: _98  and  _99
REMARK   42  A    between atoms: _98  and  _101
REMARK   43  A    between atoms: _101  and  _102
REMARK   44  A    between atoms: _105  and  _107
REMARK   45  A    between atoms: _107  and  _108
REMARK   46  A    between atoms: _107  and  _110
REMARK   47  A    between atoms: _110  and  _111
REMARK   48  A    between atoms: _114  and  _116
REMARK   49  A    between atoms: _116  and  _117
REMARK   50  A    between atoms: _119  and  _121
REMARK   51  A    between atoms: _121  and  _122
REMARK   52  A    between atoms: _121  and  _124
REMARK   53  A    between atoms: _124  and  _125
REMARK   54  A    between atoms: _127  and  _129
REMARK   55  A    between atoms: _129  and  _130
REMARK   56  A    between atoms: _129  and  _132
REMARK   57  A    between atoms: _132  and  _133
REMARK   58  A    between atoms: _135  and  _137
REMARK   59  A    between atoms: _137  and  _138
REMARK   60  A    between atoms: _137  and  _140
REMARK   61  A    between atoms: _140  and  _141
REMARK   62  A    between atoms: _144  and  _146
REMARK   63  A    between atoms: _146  and  _147
REMARK   64  A    between atoms: _146  and  _149
REMARK   65  A    between atoms: _149  and  _150
REMARK   66  A    between atoms: _160  and  _162
REMARK   67  A    between atoms: _162  and  _163
REMARK   68  A    between atoms: _162  and  _165
REMARK   69  A    between atoms: _165  and  _166
REMARK   70  A    between atoms: _168  and  _170
REMARK   71  A    between atoms: _170  and  _171
REMARK   72  A    between atoms: _170  and  _173
REMARK   73  A    between atoms: _173  and  _174
REMARK   74  A    between atoms: _177  and  _179
REMARK   75  A    between atoms: _179  and  _180
REMARK   76  A    between atoms: _179  and  _182
REMARK   77  A    between atoms: _182  and  _183
REMARK   78  A    between atoms: _185  and  _187
REMARK   79  A    between atoms: _187  and  _188
REMARK   80  A    between atoms: _187  and  _190
REMARK   81  A    between atoms: _190  and  _191
REMARK   82  A    between atoms: _196  and  _197
REMARK   83  A    between atoms: _199  and  _201
REMARK   84  A    between atoms: _201  and  _202
REMARK   85  A    between atoms: _204  and  _206
REMARK   86  A    between atoms: _206  and  _207
REMARK   87  A    between atoms: _206  and  _209
REMARK   88  A    between atoms: _209  and  _210
REMARK   89  A    between atoms: _213  and  _215
REMARK   90  A    between atoms: _215  and  _216
REMARK   91  A    between atoms: _218  and  _220
REMARK   92  A    between atoms: _220  and  _221
REMARK   93  A    between atoms: _220  and  _223
REMARK   94  A    between atoms: _223  and  _224
REMARK   95  A    between atoms: _226  and  _228
REMARK   96  A    between atoms: _228  and  _229
REMARK   97  A    between atoms: _228  and  _231
REMARK   98  A    between atoms: _231  and  _232
REMARK   99  A    between atoms: _234  and  _236
REMARK  100  A    between atoms: _236  and  _237
REMARK  101  A    between atoms: _236  and  _239
REMARK  102  A    between atoms: _239  and  _240
REMARK  103  A    between atoms: _242  and  _244
REMARK  104  A    between atoms: _244  and  _245
REMARK  105  A    between atoms: _244  and  _247
REMARK  106  A    between atoms: _247  and  _248
REMARK  107  A    between atoms: _250  and  _252
REMARK  108  A    between atoms: _252  and  _253
REMARK  109  A    between atoms: _252  and  _255
REMARK  110  A    between atoms: _255  and  _256
REMARK  111  A    between atoms: _262  and  _264
REMARK  112  A    between atoms: _264  and  _265
REMARK  113  A    between atoms: _264  and  _267
REMARK  114  A    between atoms: _267  and  _268
REMARK  115  A    between atoms: _268  and  _269
REMARK  116  A    between atoms: _272  and  _274
REMARK  117  A    between atoms: _274  and  _275
REMARK  118  A    between atoms: _274  and  _277
REMARK  119  A    between atoms: _277  and  _278
REMARK  120  A    between atoms: _281  and  _283
REMARK  121  A    between atoms: _283  and  _284
REMARK  122  A    between atoms: _283  and  _286
REMARK  123  A    between atoms: _286  and  _287
REMARK  124  A    between atoms: _290  and  _292
REMARK  125  A    between atoms: _292  and  _293
REMARK  126  A    between atoms: _292  and  _295
REMARK  127  A    between atoms: _295  and  _296
REMARK  128  A    between atoms: _299  and  _301
REMARK  129  A    between atoms: _301  and  _302
REMARK  130  A    between atoms: _304  and  _306
REMARK  131  A    between atoms: _306  and  _307
REMARK  132  A    between atoms: _306  and  _309
REMARK  133  A    between atoms: _309  and  _310
REMARK  134  A    between atoms: _313  and  _315
REMARK  135  A    between atoms: _315  and  _316
REMARK  136  A    between atoms: _315  and  _318
REMARK  137  A    between atoms: _318  and  _319
REMARK  138  A    between atoms: _322  and  _324
REMARK  139  A    between atoms: _324  and  _325
REMARK  140  A    between atoms: _328  and  _330
REMARK  141  A    between atoms: _330  and  _331
REMARK  142  A    between atoms: _330  and  _333
REMARK  143  A    between atoms: _333  and  _334
REMARK  144  A    between atoms: _337  and  _339
REMARK  145  A    between atoms: _339  and  _340
REMARK  146  A    between atoms: _339  and  _342
REMARK  147  A    between atoms: _342  and  _343
REMARK  148  A    between atoms: _348  and  _350
REMARK  149  A    between atoms: _350  and  _351
REMARK  150  A    between atoms: _350  and  _353
REMARK  151  A    between atoms: _353  and  _354
REMARK  152  A    between atoms: _357  and  _359
REMARK  153  A    between atoms: _359  and  _360
REMARK  154  A    between atoms: _359  and  _362
REMARK  155  A    between atoms: _362  and  _363
REMARK  156  A    between atoms: _363  and  _364
REMARK  157  A    between atoms: _369  and  _371
REMARK  158  A    between atoms: _371  and  _372
REMARK  159  A    between atoms: _374  and  _376
REMARK  160  A    between atoms: _376  and  _377
REMARK  161  A    between atoms: _376  and  _379
REMARK  162  A    between atoms: _379  and  _380
REMARK  163  A    between atoms: _386  and  _388
REMARK  164  A    between atoms: _388  and  _389
REMARK  165  A    between atoms: _388  and  _391
REMARK  166  A    between atoms: _391  and  _392
REMARK  167  A    between atoms: _395  and  _397
REMARK  168  A    between atoms: _397  and  _398
REMARK  169  A    between atoms: _401  and  _403
REMARK  170  A    between atoms: _403  and  _404
REMARK  171  A    between atoms: _403  and  _406
REMARK  172  A    between atoms: _406  and  _407
REMARK  173  A    between atoms: _410  and  _412
REMARK  174  A    between atoms: _412  and  _413
REMARK  175  A    between atoms: _412  and  _415
REMARK  176  A    between atoms: _415  and  _416
REMARK  177  A    between atoms: _419  and  _421
REMARK  178  A    between atoms: _421  and  _422
REMARK  179  A    between atoms: _424  and  _426
REMARK  180  A    between atoms: _426  and  _427
REMARK  181  A    between atoms: _426  and  _429
REMARK  182  A    between atoms: _429  and  _430
REMARK  183  A    between atoms: _433  and  _435
REMARK  184  A    between atoms: _435  and  _436
REMARK  185  A    between atoms: _435  and  _438
REMARK  186  A    between atoms: _438  and  _439
REMARK  187  A    between atoms: _442  and  _444
REMARK  188  A    between atoms: _444  and  _445
REMARK  189  A    between atoms: _444  and  _447
REMARK  190  A    between atoms: _447  and  _448
REMARK  191  A    between atoms: _451  and  _453
REMARK  192  A    between atoms: _453  and  _454
REMARK  193  A    between atoms: _453  and  _456
REMARK  194  A    between atoms: _456  and  _457
REMARK  195  A    between atoms: _460  and  _462
REMARK  196  A    between atoms: _462  and  _463
REMARK  197  A    between atoms: _462  and  _465
REMARK  198  A    between atoms: _465  and  _466
REMARK  199  A    between atoms: _471  and  _472
REMARK  200  A    between atoms: _474  and  _476
REMARK  201  A    between atoms: _476  and  _477
REMARK  202  A    between atoms: _476  and  _479
REMARK  203  A    between atoms: _482  and  _484
REMARK  204  A    between atoms: _484  and  _485
REMARK  205  A    between atoms: _487  and  _489
REMARK  206  A    between atoms: _489  and  _490
REMARK  207  A    between atoms: _489  and  _492
REMARK  208  A    between atoms: _492  and  _493
REMARK  209  A    between atoms: _499  and  _501
REMARK  210  A    between atoms: _501  and  _502
REMARK  211  A    between atoms: _504  and  _506
REMARK  212  A    between atoms: _506  and  _507
REMARK  213  A    between atoms: _506  and  _509
REMARK  214  A    between atoms: _509  and  _510
REMARK  215  A    between atoms: _516  and  _518
REMARK  216  A    between atoms: _518  and  _519
REMARK  217  A    between atoms: _521  and  _523
REMARK  218  A    between atoms: _523  and  _524
REMARK  219  A    between atoms: _526  and  _528
REMARK  220  A    between atoms: _528  and  _529
REMARK  221  A    between atoms: _528  and  _531
REMARK  222  A    between atoms: _531  and  _532
REMARK  223  A    between atoms: _532  and  _533
REMARK  224  A    between atoms: _538  and  _540
REMARK  225  A    between atoms: _540  and  _541
REMARK  226  A    between atoms: _543  and  _545
REMARK  227  A    between atoms: _545  and  _546
REMARK  228  A    between atoms: _545  and  _548
REMARK  229  A    between atoms: _548  and  _549
REMARK  230  A    between atoms: _552  and  _554
REMARK  231  A    between atoms: _554  and  _555
REMARK  232  A    between atoms: _557  and  _559
REMARK  233  A    between atoms: _559  and  _560
REMARK  234  A    between atoms: _559  and  _562
REMARK  235  A    between atoms: _562  and  _563
REMARK  236  A    between atoms: _566  and  _568
REMARK  237  A    between atoms: _568  and  _569
REMARK  238  A    between atoms: _568  and  _571
REMARK  239  A    between atoms: _571  and  _572
REMARK  240  A    between atoms: _577  and  _579
REMARK  241  A    between atoms: _579  and  _580
REMARK  242  A    between atoms: _579  and  _582
REMARK  243  A    between atoms: _582  and  _583
REMARK  244  A    between atoms: _586  and  _588
REMARK  245  A    between atoms: _588  and  _589
REMARK  246  A    between atoms: _591  and  _593
REMARK  247  A    between atoms: _593  and  _594
REMARK  248  A    between atoms: _593  and  _596
REMARK  249  A    between atoms: _596  and  _597
REMARK  250  A    between atoms: _600  and  _602
REMARK  251  A    between atoms: _602  and  _603
REMARK  252  A    between atoms: _602  and  _605
REMARK                            x       y       z     vdW  Elec       q    Type
REMARK                         _______ _______ _______ _____ _____    ______ ____
ROOT
ATOM      1  O   HOH     1      -6.831  29.401  18.087  0.00  0.00    +0.000 OA
ENDROOT
TORSDOF 0
REMARK  Name = ../refined-set-2016/3uri/3uri_pocket.pdb
REMARK  252 active torsions:
REMARK  status: ('A' for Active; 'I' for Inactive)
REMARK    1  A    between atoms: _1  and  _3
REMARK    2  A    between atoms: _3  and  _4
REMARK    3  A    between atoms: _3  and  _6
REMARK    4  A    between atoms: _6  and  _7
REMARK    5  A    between atoms: _10  and  _12
REMARK    6  A    between atoms: _12  and  _13
REMARK    7  A    between atoms: _12  and  _15
REMARK    8  A    between atoms: _15  and  _16
REMARK    9  A    between atoms: _19  and  _21
REMARK   10  A    between atoms: _21  and  _22
REMARK   11  A    between atoms: _21  and  _24
REMARK   12  A    between atoms: _24  and  _25
REMARK   13  A    between atoms: _28  and  _30
REMARK   14  A    between atoms: _30  and  _31
REMARK   15  A    between atoms: _30  and  _33
REMARK   16  A    between atoms: _33  and  _34
REMARK   17  A    between atoms: _37  and  _39
REMARK   18  A    between atoms: _39  and  _40
REMARK   19  A    between atoms: _39  and  _42
REMARK   20  A    between atoms: _42  and  _43
REMARK   21  A    between atoms: _46  and  _48
REMARK   22  A    between atoms: _48  and  _49
REMARK   23  A    between atoms: _52  and  _54
REMARK   24  A    between atoms: _54  and  _55
REMARK   25  A    between atoms: _54  and  _57
REMARK   26  A    between atoms: _57  and  _58
REMARK   27  A    between atoms: _63  and  _64
REMARK   28  A    between atoms: _66  and  _68
REMARK   29  A    between atoms: _68  and  _69
REMARK   30  A    between atoms: _68  and  _71
REMARK   31  A    between atoms: _71  and  _72
REMARK   32  A    between atoms: _75  and  _77
REMARK   33  A    between atoms: _77  and  _78
REMARK   34  A    between atoms: _77  and  _80
REMARK   35  A    between atoms: _80  and  _81
REMARK   36  A    between atoms: _84  and  _86
REMARK   37  A    between atoms: _86  and  _87
REMARK   38  A    between atoms: _86  and  _89
REMARK   39  A    between atoms: _89  and  _90
REMARK   40  A    between atoms: _96  and  _98
REMARK   41  A    between atoms: _98  and  _99
REMARK   42  A    between atoms: _98  and  _101
REMARK   43  A    between atoms: _101  and  _102
REMARK   44  A    between atoms: _105  and  _107
REMARK   45  A    between atoms: _107  and  _108
REMARK   46  A    between atoms: _107  and  _110
REMARK   47  A    between atoms: _110  and  _111
REMARK   48  A    between atoms: _114  and  _116
REMARK   49  A    between atoms: _116  and  _117
REMARK   50  A    between atoms: _119  and  _121
REMARK   51  A    between atoms: _121  and  _122
REMARK   52  A    between atoms: _121  and  _124
REMARK   53  A    between atoms: _124  and  _125
REMARK   54  A    between atoms: _127  and  _129
REMARK   55  A    between atoms: _129  and  _130
REMARK   56  A    between atoms: _129  and  _132
REMARK   57  A    between atoms: _132  and  _133
REMARK   58  A    between atoms: _135  and  _137
REMARK   59  A    between atoms: _137  and  _138
REMARK   60  A    between atoms: _137  and  _140
REMARK   61  A    between atoms: _140  and  _141
REMARK   62  A    between atoms: _144  and  _146
REMARK   63  A    between atoms: _146  and  _147
REMARK   64  A    between atoms: _146  and  _149
REMARK   65  A    between atoms: _149  and  _150
REMARK   66  A    between atoms: _160  and  _162
REMARK   67  A    between atoms: _162  and  _163
REMARK   68  A    between atoms: _162  and  _165
REMARK   69  A    between atoms: _165  and  _166
REMARK   70  A    between atoms: _168  and  _170
REMARK   71  A    between atoms: _170  and  _171
REMARK   72  A    between atoms: _170  and  _173
REMARK   73  A    between atoms: _173  and  _174
REMARK   74  A    between atoms: _177  and  _179
REMARK   75  A    between atoms: _179  and  _180
REMARK   76  A    between atoms: _179  and  _182
REMARK   77  A    between atoms: _182  and  _183
REMARK   78  A    between atoms: _185  and  _187
REMARK   79  A    between atoms: _187  and  _188
REMARK   80  A    between atoms: _187  and  _190
REMARK   81  A    between atoms: _190  and  _191
REMARK   82  A    between atoms: _196  and  _197
REMARK   83  A    between atoms: _199  and  _201
REMARK   84  A    between atoms: _201  and  _202
REMARK   85  A    between atoms: _204  and  _206
REMARK   86  A    between atoms: _206  and  _207
REMARK   87  A    between atoms: _206  and  _209
REMARK   88  A    between atoms: _209  and  _210
REMARK   89  A    between atoms: _213  and  _215
REMARK   90  A    between atoms: _215  and  _216
REMARK   91  A    between atoms: _218  and  _220
REMARK   92  A    between atoms: _220  and  _221
REMARK   93  A    between atoms: _220  and  _223
REMARK   94  A    between atoms: _223  and  _224
REMARK   95  A    between atoms: _226  and  _228
REMARK   96  A    between atoms: _228  and  _229
REMARK   97  A    between atoms: _228  and  _231
REMARK   98  A    between atoms: _231  and  _232
REMARK   99  A    between atoms: _234  and  _236
REMARK  100  A    between atoms: _236  and  _237
REMARK  101  A    between atoms: _236  and  _239
REMARK  102  A    between atoms: _239  and  _240
REMARK  103  A    between atoms: _242  and  _244
REMARK  104  A    between atoms: _244  and  _245
REMARK  105  A    between atoms: _244  and  _247
REMARK  106  A    between atoms: _247  and  _248
REMARK  107  A    between atoms: _250  and  _252
REMARK  108  A    between atoms: _252  and  _253
REMARK  109  A    between atoms: _252  and  _255
REMARK  110  A    between atoms: _255  and  _256
REMARK  111  A    between atoms: _262  and  _264
REMARK  112  A    between atoms: _264  and  _265
REMARK  113  A    between atoms: _264  and  _267
REMARK  114  A    between atoms: _267  and  _268
REMARK  115  A    between atoms: _268  and  _269
REMARK  116  A    between atoms: _272  and  _274
REMARK  117  A    between atoms: _274  and  _275
REMARK  118  A    between atoms: _274  and  _277
REMARK  119  A    between atoms: _277  and  _278
REMARK  120  A    between atoms: _281  and  _283
REMARK  121  A    between atoms: _283  and  _284
REMARK  122  A    between atoms: _283  and  _286
REMARK  123  A    between atoms: _286  and  _287
REMARK  124  A    between atoms: _290  and  _292
REMARK  125  A    between atoms: _292  and  _293
REMARK  126  A    between atoms: _292  and  _295
REMARK  127  A    between atoms: _295  and  _296
REMARK  128  A    between atoms: _299  and  _301
REMARK  129  A    between atoms: _301  and  _302
REMARK  130  A    between atoms: _304  and  _306
REMARK  131  A    between atoms: _306  and  _307
REMARK  132  A    between atoms: _306  and  _309
REMARK  133  A    between atoms: _309  and  _310
REMARK  134  A    between atoms: _313  and  _315
REMARK  135  A    between atoms: _315  and  _316
REMARK  136  A    between atoms: _315  and  _318
REMARK  137  A    between atoms: _318  and  _319
REMARK  138  A    between atoms: _322  and  _324
REMARK  139  A    between atoms: _324  and  _325
REMARK  140  A    between atoms: _328  and  _330
REMARK  141  A    between atoms: _330  and  _331
REMARK  142  A    between atoms: _330  and  _333
REMARK  143  A    between atoms: _333  and  _334
REMARK  144  A    between atoms: _337  and  _339
REMARK  145  A    between atoms: _339  and  _340
REMARK  146  A    between atoms: _339  and  _342
REMARK  147  A    between atoms: _342  and  _343
REMARK  148  A    between atoms: _348  and  _350
REMARK  149  A    between atoms: _350  and  _351
REMARK  150  A    between atoms: _350  and  _353
REMARK  151  A    between atoms: _353  and  _354
REMARK  152  A    between atoms: _357  and  _359
REMARK  153  A    between atoms: _359  and  _360
REMARK  154  A    between atoms: _359  and  _362
REMARK  155  A    between atoms: _362  and  _363
REMARK  156  A    between atoms: _363  and  _364
REMARK  157  A    between atoms: _369  and  _371
REMARK  158  A    between atoms: _371  and  _372
REMARK  159  A    between atoms: _374  and  _376
REMARK  160  A    between atoms: _376  and  _377
REMARK  161  A    between atoms: _376  and  _379
REMARK  162  A    between atoms: _379  and  _380
REMARK  163  A    between atoms: _386  and  _388
REMARK  164  A    between atoms: _388  and  _389
REMARK  165  A    between atoms: _388  and  _391
REMARK  166  A    between atoms: _391  and  _392
REMARK  167  A    between atoms: _395  and  _397
REMARK  168  A    between atoms: _397  and  _398
REMARK  169  A    between atoms: _401  and  _403
REMARK  170  A    between atoms: _403  and  _404
REMARK  171  A    between atoms: _403  and  _406
REMARK  172  A    between atoms: _406  and  _407
REMARK  173  A    between atoms: _410  and  _412
REMARK  174  A    between atoms: _412  and  _413
REMARK  175  A    between atoms: _412  and  _415
REMARK  176  A    between atoms: _415  and  _416
REMARK  177  A    between atoms: _419  and  _421
REMARK  178  A    between atoms: _421  and  _422
REMARK  179  A    between atoms: _424  and  _426
REMARK  180  A    between atoms: _426  and  _427
REMARK  181  A    between atoms: _426  and  _429
REMARK  182  A    between atoms: _429  and  _430
REMARK  183  A    between atoms: _433  and  _435
REMARK  184  A    between atoms: _435  and  _436
REMARK  185  A    between atoms: _435  and  _438
REMARK  186  A    between atoms: _438  and  _439
REMARK  187  A    between atoms: _442  and  _444
REMARK  188  A    between atoms: _444  and  _445
REMARK  189  A    between atoms: _444  and  _447
REMARK  190  A    between atoms: _447  and  _448
REMARK  191  A    between atoms: _451  and  _453
REMARK  192  A    between atoms: _453  and  _454
REMARK  193  A    between atoms: _453  and  _456
REMARK  194  A    between atoms: _456  and  _457
REMARK  195  A    between atoms: _460  and  _462
REMARK  196  A    between atoms: _462  and  _463
REMARK  197  A    between atoms: _462  and  _465
REMARK  198  A    between atoms: _465  and  _466
REMARK  199  A    between atoms: _471  and  _472
REMARK  200  A    between atoms: _474  and  _476
REMARK  201  A    between atoms: _476  and  _477
REMARK  202  A    between atoms: _476  and  _479
REMARK  203  A    between atoms: _482  and  _484
REMARK  204  A    between atoms: _484  and  _485
REMARK  205  A    between atoms: _487  and  _489
REMARK  206  A    between atoms: _489  and  _490
REMARK  207  A    between atoms: _489  and  _492
REMARK  208  A    between atoms: _492  and  _493
REMARK  209  A    between atoms: _499  and  _501
REMARK  210  A    between atoms: _501  and  _502
REMARK  211  A    between atoms: _504  and  _506
REMARK  212  A    between atoms: _506  and  _507
REMARK  213  A    between atoms: _506  and  _509
REMARK  214  A    between atoms: _509  and  _510
REMARK  215  A    between atoms: _516  and  _518
REMARK  216  A    between atoms: _518  and  _519
REMARK  217  A    between atoms: _521  and  _523
REMARK  218  A    between atoms: _523  and  _524
REMARK  219  A    between atoms: _526  and  _528
REMARK  220  A    between atoms: _528  and  _529
REMARK  221  A    between atoms: _528  and  _531
REMARK  222  A    between atoms: _531  and  _532
REMARK  223  A    between atoms: _532  and  _533
REMARK  224  A    between atoms: _538  and  _540
REMARK  225  A    between atoms: _540  and  _541
REMARK  226  A    between atoms: _543  and  _545
REMARK  227  A    between atoms: _545  and  _546
REMARK  228  A    between atoms: _545  and  _548
REMARK  229  A    between atoms: _548  and  _549
REMARK  230  A    between atoms: _552  and  _554
REMARK  231  A    between atoms: _554  and  _555
REMARK  232  A    between atoms: _557  and  _559
REMARK  233  A    between atoms: _559  and  _560
REMARK  234  A    between atoms: _559  and  _562
REMARK  235  A    between atoms: _562  and  _563
REMARK  236  A    between atoms: _566  and  _568
REMARK  237  A    between atoms: _568  and  _569
REMARK  238  A    between atoms: _568  and  _571
REMARK  239  A    between atoms: _571  and  _572
REMARK  240  A    between atoms: _577  and  _579
REMARK  241  A    between atoms: _579  and  _580
REMARK  242  A    between atoms: _579  and  _582
REMARK  243  A    between atoms: _582  and  _583
REMARK  244  A    between atoms: _586  and  _588
REMARK  245  A    between atoms: _588  and  _589
REMARK  246  A    between atoms: _591  and  _593
REMARK  247  A    between atoms: _593  and  _594
REMARK  248  A    between atoms: _593  and  _596
REMARK  249  A    between atoms: _596  and  _597
REMARK  250  A    between atoms: _600  and  _602
REMARK  251  A    between atoms: _602  and  _603
REMARK  252  A    between atoms: _602  and  _605
REMARK                            x       y       z     vdW  Elec       q    Type
REMARK                         _______ _______ _______ _____ _____    ______ ____
ROOT
ATOM      1  O   HOH     1       2.682  31.194  25.908  0.00  0.00    +0.000 OA
ENDROOT
TORSDOF 0
REMARK  Name = ../refined-set-2016/3uri/3uri_pocket.pdb
REMARK  252 active torsions:
REMARK  status: ('A' for Active; 'I' for Inactive)
REMARK    1  A    between atoms: _1  and  _3
REMARK    2  A    between atoms: _3  and  _4
REMARK    3  A    between atoms: _3  and  _6
REMARK    4  A    between atoms: _6  and  _7
REMARK    5  A    between atoms: _10  and  _12
REMARK    6  A    between atoms: _12  and  _13
REMARK    7  A    between atoms: _12  and  _15
REMARK    8  A    between atoms: _15  and  _16
REMARK    9  A    between atoms: _19  and  _21
REMARK   10  A    between atoms: _21  and  _22
REMARK   11  A    between atoms: _21  and  _24
REMARK   12  A    between atoms: _24  and  _25
REMARK   13  A    between atoms: _28  and  _30
REMARK   14  A    between atoms: _30  and  _31
REMARK   15  A    between atoms: _30  and  _33
REMARK   16  A    between atoms: _33  and  _34
REMARK   17  A    between atoms: _37  and  _39
REMARK   18  A    between atoms: _39  and  _40
REMARK   19  A    between atoms: _39  and  _42
REMARK   20  A    between atoms: _42  and  _43
REMARK   21  A    between atoms: _46  and  _48
REMARK   22  A    between atoms: _48  and  _49
REMARK   23  A    between atoms: _52  and  _54
REMARK   24  A    between atoms: _54  and  _55
REMARK   25  A    between atoms: _54  and  _57
REMARK   26  A    between atoms: _57  and  _58
REMARK   27  A    between atoms: _63  and  _64
REMARK   28  A    between atoms: _66  and  _68
REMARK   29  A    between atoms: _68  and  _69
REMARK   30  A    between atoms: _68  and  _71
REMARK   31  A    between atoms: _71  and  _72
REMARK   32  A    between atoms: _75  and  _77
REMARK   33  A    between atoms: _77  and  _78
REMARK   34  A    between atoms: _77  and  _80
REMARK   35  A    between atoms: _80  and  _81
REMARK   36  A    between atoms: _84  and  _86
REMARK   37  A    between atoms: _86  and  _87
REMARK   38  A    between atoms: _86  and  _89
REMARK   39  A    between atoms: _89  and  _90
REMARK   40  A    between atoms: _96  and  _98
REMARK   41  A    between atoms: _98  and  _99
REMARK   42  A    between atoms: _98  and  _101
REMARK   43  A    between atoms: _101  and  _102
REMARK   44  A    between atoms: _105  and  _107
REMARK   45  A    between atoms: _107  and  _108
REMARK   46  A    between atoms: _107  and  _110
REMARK   47  A    between atoms: _110  and  _111
REMARK   48  A    between atoms: _114  and  _116
REMARK   49  A    between atoms: _116  and  _117
REMARK   50  A    between atoms: _119  and  _121
REMARK   51  A    between atoms: _121  and  _122
REMARK   52  A    between atoms: _121  and  _124
REMARK   53  A    between atoms: _124  and  _125
REMARK   54  A    between atoms: _127  and  _129
REMARK   55  A    between atoms: _129  and  _130
REMARK   56  A    between atoms: _129  and  _132
REMARK   57  A    between atoms: _132  and  _133
REMARK   58  A    between atoms: _135  and  _137
REMARK   59  A    between atoms: _137  and  _138
REMARK   60  A    between atoms: _137  and  _140
REMARK   61  A    between atoms: _140  and  _141
REMARK   62  A    between atoms: _144  and  _146
REMARK   63  A    between atoms: _146  and  _147
REMARK   64  A    between atoms: _146  and  _149
REMARK   65  A    between atoms: _149  and  _150
REMARK   66  A    between atoms: _160  and  _162
REMARK   67  A    between atoms: _162  and  _163
REMARK   68  A    between atoms: _162  and  _165
REMARK   69  A    between atoms: _165  and  _166
REMARK   70  A    between atoms: _168  and  _170
REMARK   71  A    between atoms: _170  and  _171
REMARK   72  A    between atoms: _170  and  _173
REMARK   73  A    between atoms: _173  and  _174
REMARK   74  A    between atoms: _177  and  _179
REMARK   75  A    between atoms: _179  and  _180
REMARK   76  A    between atoms: _179  and  _182
REMARK   77  A    between atoms: _182  and  _183
REMARK   78  A    between atoms: _185  and  _187
REMARK   79  A    between atoms: _187  and  _188
REMARK   80  A    between atoms: _187  and  _190
REMARK   81  A    between atoms: _190  and  _191
REMARK   82  A    between atoms: _196  and  _197
REMARK   83  A    between atoms: _199  and  _201
REMARK   84  A    between atoms: _201  and  _202
REMARK   85  A    between atoms: _204  and  _206
REMARK   86  A    between atoms: _206  and  _207
REMARK   87  A    between atoms: _206  and  _209
REMARK   88  A    between atoms: _209  and  _210
REMARK   89  A    between atoms: _213  and  _215
REMARK   90  A    between atoms: _215  and  _216
REMARK   91  A    between atoms: _218  and  _220
REMARK   92  A    between atoms: _220  and  _221
REMARK   93  A    between atoms: _220  and  _223
REMARK   94  A    between atoms: _223  and  _224
REMARK   95  A    between atoms: _226  and  _228
REMARK   96  A    between atoms: _228  and  _229
REMARK   97  A    between atoms: _228  and  _231
REMARK   98  A    between atoms: _231  and  _232
REMARK   99  A    between atoms: _234  and  _236
REMARK  100  A    between atoms: _236  and  _237
REMARK  101  A    between atoms: _236  and  _239
REMARK  102  A    between atoms: _239  and  _240
REMARK  103  A    between atoms: _242  and  _244
REMARK  104  A    between atoms: _244  and  _245
REMARK  105  A    between atoms: _244  and  _247
REMARK  106  A    between atoms: _247  and  _248
REMARK  107  A    between atoms: _250  and  _252
REMARK  108  A    between atoms: _252  and  _253
REMARK  109  A    between atoms: _252  and  _255
REMARK  110  A    between atoms: _255  and  _256
REMARK  111  A    between atoms: _262  and  _264
REMARK  112  A    between atoms: _264  and  _265
REMARK  113  A    between atoms: _264  and  _267
REMARK  114  A    between atoms: _267  and  _268
REMARK  115  A    between atoms: _268  and  _269
REMARK  116  A    between atoms: _272  and  _274
REMARK  117  A    between atoms: _274  and  _275
REMARK  118  A    between atoms: _274  and  _277
REMARK  119  A    between atoms: _277  and  _278
REMARK  120  A    between atoms: _281  and  _283
REMARK  121  A    between atoms: _283  and  _284
REMARK  122  A    between atoms: _283  and  _286
REMARK  123  A    between atoms: _286  and  _287
REMARK  124  A    between atoms: _290  and  _292
REMARK  125  A    between atoms: _292  and  _293
REMARK  126  A    between atoms: _292  and  _295
REMARK  127  A    between atoms: _295  and  _296
REMARK  128  A    between atoms: _299  and  _301
REMARK  129  A    between atoms: _301  and  _302
REMARK  130  A    between atoms: _304  and  _306
REMARK  131  A    between atoms: _306  and  _307
REMARK  132  A    between atoms: _306  and  _309
REMARK  133  A    between atoms: _309  and  _310
REMARK  134  A    between atoms: _313  and  _315
REMARK  135  A    between atoms: _315  and  _316
REMARK  136  A    between atoms: _315  and  _318
REMARK  137  A    between atoms: _318  and  _319
REMARK  138  A    between atoms: _322  and  _324
REMARK  139  A    between atoms: _324  and  _325
REMARK  140  A    between atoms: _328  and  _330
REMARK  141  A    between atoms: _330  and  _331
REMARK  142  A    between atoms: _330  and  _333
REMARK  143  A    between atoms: _333  and  _334
REMARK  144  A    between atoms: _337  and  _339
REMARK  145  A    between atoms: _339  and  _340
REMARK  146  A    between atoms: _339  and  _342
REMARK  147  A    between atoms: _342  and  _343
REMARK  148  A    between atoms: _348  and  _350
REMARK  149  A    between atoms: _350  and  _351
REMARK  150  A    between atoms: _350  and  _353
REMARK  151  A    between atoms: _353  and  _354
REMARK  152  A    between atoms: _357  and  _359
REMARK  153  A    between atoms: _359  and  _360
REMARK  154  A    between atoms: _359  and  _362
REMARK  155  A    between atoms: _362  and  _363
REMARK  156  A    between atoms: _363  and  _364
REMARK  157  A    between atoms: _369  and  _371
REMARK  158  A    between atoms: _371  and  _372
REMARK  159  A    between atoms: _374  and  _376
REMARK  160  A    between atoms: _376  and  _377
REMARK  161  A    between atoms: _376  and  _379
REMARK  162  A    between atoms: _379  and  _380
REMARK  163  A    between atoms: _386  and  _388
REMARK  164  A    between atoms: _388  and  _389
REMARK  165  A    between atoms: _388  and  _391
REMARK  166  A    between atoms: _391  and  _392
REMARK  167  A    between atoms: _395  and  _397
REMARK  168  A    between atoms: _397  and  _398
REMARK  169  A    between atoms: _401  and  _403
REMARK  170  A    between atoms: _403  and  _404
REMARK  171  A    between atoms: _403  and  _406
REMARK  172  A    between atoms: _406  and  _407
REMARK  173  A    between atoms: _410  and  _412
REMARK  174  A    between atoms: _412  and  _413
REMARK  175  A    between atoms: _412  and  _415
REMARK  176  A    between atoms: _415  and  _416
REMARK  177  A    between atoms: _419  and  _421
REMARK  178  A    between atoms: _421  and  _422
REMARK  179  A    between atoms: _424  and  _426
REMARK  180  A    between atoms: _426  and  _427
REMARK  181  A    between atoms: _426  and  _429
REMARK  182  A    between atoms: _429  and  _430
REMARK  183  A    between atoms: _433  and  _435
REMARK  184  A    between atoms: _435  and  _436
REMARK  185  A    between atoms: _435  and  _438
REMARK  186  A    between atoms: _438  and  _439
REMARK  187  A    between atoms: _442  and  _444
REMARK  188  A    between atoms: _444  and  _445
REMARK  189  A    between atoms: _444  and  _447
REMARK  190  A    between atoms: _447  and  _448
REMARK  191  A    between atoms: _451  and  _453
REMARK  192  A    between atoms: _453  and  _454
REMARK  193  A    between atoms: _453  and  _456
REMARK  194  A    between atoms: _456  and  _457
REMARK  195  A    between atoms: _460  and  _462
REMARK  196  A    between atoms: _462  and  _463
REMARK  197  A    between atoms: _462  and  _465
REMARK  198  A    between atoms: _465  and  _466
REMARK  199  A    between atoms: _471  and  _472
REMARK  200  A    between atoms: _474  and  _476
REMARK  201  A    between atoms: _476  and  _477
REMARK  202  A    between atoms: _476  and  _479
REMARK  203  A    between atoms: _482  and  _484
REMARK  204  A    between atoms: _484  and  _485
REMARK  205  A    between atoms: _487  and  _489
REMARK  206  A    between atoms: _489  and  _490
REMARK  207  A    between atoms: _489  and  _492
REMARK  208  A    between atoms: _492  and  _493
REMARK  209  A    between atoms: _499  and  _501
REMARK  210  A    between atoms: _501  and  _502
REMARK  211  A    between atoms: _504  and  _506
REMARK  212  A    between atoms: _506  and  _507
REMARK  213  A    between atoms: _506  and  _509
REMARK  214  A    between atoms: _509  and  _510
REMARK  215  A    between atoms: _516  and  _518
REMARK  216  A    between atoms: _518  and  _519
REMARK  217  A    between atoms: _521  and  _523
REMARK  218  A    between atoms: _523  and  _524
REMARK  219  A    between atoms: _526  and  _528
REMARK  220  A    between atoms: _528  and  _529
REMARK  221  A    between atoms: _528  and  _531
REMARK  222  A    between atoms: _531  and  _532
REMARK  223  A    between atoms: _532  and  _533
REMARK  224  A    between atoms: _538  and  _540
REMARK  225  A    between atoms: _540  and  _541
REMARK  226  A    between atoms: _543  and  _545
REMARK  227  A    between atoms: _545  and  _546
REMARK  228  A    between atoms: _545  and  _548
REMARK  229  A    between atoms: _548  and  _549
REMARK  230  A    between atoms: _552  and  _554
REMARK  231  A    between atoms: _554  and  _555
REMARK  232  A    between atoms: _557  and  _559
REMARK  233  A    between atoms: _559  and  _560
REMARK  234  A    between atoms: _559  and  _562
REMARK  235  A    between atoms: _562  and  _563
REMARK  236  A    between atoms: _566  and  _568
REMARK  237  A    between atoms: _568  and  _569
REMARK  238  A    between atoms: _568  and  _571
REMARK  239  A    between atoms: _571  and  _572
REMARK  240  A    between atoms: _577  and  _579
REMARK  241  A    between atoms: _579  and  _580
REMARK  242  A    between atoms: _579  and  _582
REMARK  243  A    between atoms: _582  and  _583
REMARK  244  A    between atoms: _586  and  _588
REMARK  245  A    between atoms: _588  and  _589
REMARK  246  A    between atoms: _591  and  _593
REMARK  247  A    between atoms: _593  and  _594
REMARK  248  A    between atoms: _593  and  _596
REMARK  249  A    between atoms: _596  and  _597
REMARK  250  A    between atoms: _600  and  _602
REMARK  251  A    between atoms: _602  and  _603
REMARK  252  A    between atoms: _602  and  _605
REMARK                            x       y       z     vdW  Elec       q    Type
REMARK                         _______ _______ _______ _____ _____    ______ ____
ROOT
ATOM      1  O   HOH     1      -7.076  25.142  17.097  0.00  0.00    +0.000 OA
ENDROOT
TORSDOF 0
REMARK  Name = ../refined-set-2016/3uri/3uri_pocket.pdb
REMARK  252 active torsions:
REMARK  status: ('A' for Active; 'I' for Inactive)
REMARK    1  A    between atoms: _1  and  _3
REMARK    2  A    between atoms: _3  and  _4
REMARK    3  A    between atoms: _3  and  _6
REMARK    4  A    between atoms: _6  and  _7
REMARK    5  A    between atoms: _10  and  _12
REMARK    6  A    between atoms: _12  and  _13
REMARK    7  A    between atoms: _12  and  _15
REMARK    8  A    between atoms: _15  and  _16
REMARK    9  A    between atoms: _19  and  _21
REMARK   10  A    between atoms: _21  and  _22
REMARK   11  A    between atoms: _21  and  _24
REMARK   12  A    between atoms: _24  and  _25
REMARK   13  A    between atoms: _28  and  _30
REMARK   14  A    between atoms: _30  and  _31
REMARK   15  A    between atoms: _30  and  _33
REMARK   16  A    between atoms: _33  and  _34
REMARK   17  A    between atoms: _37  and  _39
REMARK   18  A    between atoms: _39  and  _40
REMARK   19  A    between atoms: _39  and  _42
REMARK   20  A    between atoms: _42  and  _43
REMARK   21  A    between atoms: _46  and  _48
REMARK   22  A    between atoms: _48  and  _49
REMARK   23  A    between atoms: _52  and  _54
REMARK   24  A    between atoms: _54  and  _55
REMARK   25  A    between atoms: _54  and  _57
REMARK   26  A    between atoms: _57  and  _58
REMARK   27  A    between atoms: _63  and  _64
REMARK   28  A    between atoms: _66  and  _68
REMARK   29  A    between atoms: _68  and  _69
REMARK   30  A    between atoms: _68  and  _71
REMARK   31  A    between atoms: _71  and  _72
REMARK   32  A    between atoms: _75  and  _77
REMARK   33  A    between atoms: _77  and  _78
REMARK   34  A    between atoms: _77  and  _80
REMARK   35  A    between atoms: _80  and  _81
REMARK   36  A    between atoms: _84  and  _86
REMARK   37  A    between atoms: _86  and  _87
REMARK   38  A    between atoms: _86  and  _89
REMARK   39  A    between atoms: _89  and  _90
REMARK   40  A    between atoms: _96  and  _98
REMARK   41  A    between atoms: _98  and  _99
REMARK   42  A    between atoms: _98  and  _101
REMARK   43  A    between atoms: _101  and  _102
REMARK   44  A    between atoms: _105  and  _107
REMARK   45  A    between atoms: _107  and  _108
REMARK   46  A    between atoms: _107  and  _110
REMARK   47  A    between atoms: _110  and  _111
REMARK   48  A    between atoms: _114  and  _116
REMARK   49  A    between atoms: _116  and  _117
REMARK   50  A    between atoms: _119  and  _121
REMARK   51  A    between atoms: _121  and  _122
REMARK   52  A    between atoms: _121  and  _124
REMARK   53  A    between atoms: _124  and  _125
REMARK   54  A    between atoms: _127  and  _129
REMARK   55  A    between atoms: _129  and  _130
REMARK   56  A    between atoms: _129  and  _132
REMARK   57  A    between atoms: _132  and  _133
REMARK   58  A    between atoms: _135  and  _137
REMARK   59  A    between atoms: _137  and  _138
REMARK   60  A    between atoms: _137  and  _140
REMARK   61  A    between atoms: _140  and  _141
REMARK   62  A    between atoms: _144  and  _146
REMARK   63  A    between atoms: _146  and  _147
REMARK   64  A    between atoms: _146  and  _149
REMARK   65  A    between atoms: _149  and  _150
REMARK   66  A    between atoms: _160  and  _162
REMARK   67  A    between atoms: _162  and  _163
REMARK   68  A    between atoms: _162  and  _165
REMARK   69  A    between atoms: _165  and  _166
REMARK   70  A    between atoms: _168  and  _170
REMARK   71  A    between atoms: _170  and  _171
REMARK   72  A    between atoms: _170  and  _173
REMARK   73  A    between atoms: _173  and  _174
REMARK   74  A    between atoms: _177  and  _179
REMARK   75  A    between atoms: _179  and  _180
REMARK   76  A    between atoms: _179  and  _182
REMARK   77  A    between atoms: _182  and  _183
REMARK   78  A    between atoms: _185  and  _187
REMARK   79  A    between atoms: _187  and  _188
REMARK   80  A    between atoms: _187  and  _190
REMARK   81  A    between atoms: _190  and  _191
REMARK   82  A    between atoms: _196  and  _197
REMARK   83  A    between atoms: _199  and  _201
REMARK   84  A    between atoms: _201  and  _202
REMARK   85  A    between atoms: _204  and  _206
REMARK   86  A    between atoms: _206  and  _207
REMARK   87  A    between atoms: _206  and  _209
REMARK   88  A    between atoms: _209  and  _210
REMARK   89  A    between atoms: _213  and  _215
REMARK   90  A    between atoms: _215  and  _216
REMARK   91  A    between atoms: _218  and  _220
REMARK   92  A    between atoms: _220  and  _221
REMARK   93  A    between atoms: _220  and  _223
REMARK   94  A    between atoms: _223  and  _224
REMARK   95  A    between atoms: _226  and  _228
REMARK   96  A    between atoms: _228  and  _229
REMARK   97  A    between atoms: _228  and  _231
REMARK   98  A    between atoms: _231  and  _232
REMARK   99  A    between atoms: _234  and  _236
REMARK  100  A    between atoms: _236  and  _237
REMARK  101  A    between atoms: _236  and  _239
REMARK  102  A    between atoms: _239  and  _240
REMARK  103  A    between atoms: _242  and  _244
REMARK  104  A    between atoms: _244  and  _245
REMARK  105  A    between atoms: _244  and  _247
REMARK  106  A    between atoms: _247  and  _248
REMARK  107  A    between atoms: _250  and  _252
REMARK  108  A    between atoms: _252  and  _253
REMARK  109  A    between atoms: _252  and  _255
REMARK  110  A    between atoms: _255  and  _256
REMARK  111  A    between atoms: _262  and  _264
REMARK  112  A    between atoms: _264  and  _265
REMARK  113  A    between atoms: _264  and  _267
REMARK  114  A    between atoms: _267  and  _268
REMARK  115  A    between atoms: _268  and  _269
REMARK  116  A    between atoms: _272  and  _274
REMARK  117  A    between atoms: _274  and  _275
REMARK  118  A    between atoms: _274  and  _277
REMARK  119  A    between atoms: _277  and  _278
REMARK  120  A    between atoms: _281  and  _283
REMARK  121  A    between atoms: _283  and  _284
REMARK  122  A    between atoms: _283  and  _286
REMARK  123  A    between atoms: _286  and  _287
REMARK  124  A    between atoms: _290  and  _292
REMARK  125  A    between atoms: _292  and  _293
REMARK  126  A    between atoms: _292  and  _295
REMARK  127  A    between atoms: _295  and  _296
REMARK  128  A    between atoms: _299  and  _301
REMARK  129  A    between atoms: _301  and  _302
REMARK  130  A    between atoms: _304  and  _306
REMARK  131  A    between atoms: _306  and  _307
REMARK  132  A    between atoms: _306  and  _309
REMARK  133  A    between atoms: _309  and  _310
REMARK  134  A    between atoms: _313  and  _315
REMARK  135  A    between atoms: _315  and  _316
REMARK  136  A    between atoms: _315  and  _318
REMARK  137  A    between atoms: _318  and  _319
REMARK  138  A    between atoms: _322  and  _324
REMARK  139  A    between atoms: _324  and  _325
REMARK  140  A    between atoms: _328  and  _330
REMARK  141  A    between atoms: _330  and  _331
REMARK  142  A    between atoms: _330  and  _333
REMARK  143  A    between atoms: _333  and  _334
REMARK  144  A    between atoms: _337  and  _339
REMARK  145  A    between atoms: _339  and  _340
REMARK  146  A    between atoms: _339  and  _342
REMARK  147  A    between atoms: _342  and  _343
REMARK  148  A    between atoms: _348  and  _350
REMARK  149  A    between atoms: _350  and  _351
REMARK  150  A    between atoms: _350  and  _353
REMARK  151  A    between atoms: _353  and  _354
REMARK  152  A    between atoms: _357  and  _359
REMARK  153  A    between atoms: _359  and  _360
REMARK  154  A    between atoms: _359  and  _362
REMARK  155  A    between atoms: _362  and  _363
REMARK  156  A    between atoms: _363  and  _364
REMARK  157  A    between atoms: _369  and  _371
REMARK  158  A    between atoms: _371  and  _372
REMARK  159  A    between atoms: _374  and  _376
REMARK  160  A    between atoms: _376  and  _377
REMARK  161  A    between atoms: _376  and  _379
REMARK  162  A    between atoms: _379  and  _380
REMARK  163  A    between atoms: _386  and  _388
REMARK  164  A    between atoms: _388  and  _389
REMARK  165  A    between atoms: _388  and  _391
REMARK  166  A    between atoms: _391  and  _392
REMARK  167  A    between atoms: _395  and  _397
REMARK  168  A    between atoms: _397  and  _398
REMARK  169  A    between atoms: _401  and  _403
REMARK  170  A    between atoms: _403  and  _404
REMARK  171  A    between atoms: _403  and  _406
REMARK  172  A    between atoms: _406  and  _407
REMARK  173  A    between atoms: _410  and  _412
REMARK  174  A    between atoms: _412  and  _413
REMARK  175  A    between atoms: _412  and  _415
REMARK  176  A    between atoms: _415  and  _416
REMARK  177  A    between atoms: _419  and  _421
REMARK  178  A    between atoms: _421  and  _422
REMARK  179  A    between atoms: _424  and  _426
REMARK  180  A    between atoms: _426  and  _427
REMARK  181  A    between atoms: _426  and  _429
REMARK  182  A    between atoms: _429  and  _430
REMARK  183  A    between atoms: _433  and  _435
REMARK  184  A    between atoms: _435  and  _436
REMARK  185  A    between atoms: _435  and  _438
REMARK  186  A    between atoms: _438  and  _439
REMARK  187  A    between atoms: _442  and  _444
REMARK  188  A    between atoms: _444  and  _445
REMARK  189  A    between atoms: _444  and  _447
REMARK  190  A    between atoms: _447  and  _448
REMARK  191  A    between atoms: _451  and  _453
REMARK  192  A    between atoms: _453  and  _454
REMARK  193  A    between atoms: _453  and  _456
REMARK  194  A    between atoms: _456  and  _457
REMARK  195  A    between atoms: _460  and  _462
REMARK  196  A    between atoms: _462  and  _463
REMARK  197  A    between atoms: _462  and  _465
REMARK  198  A    between atoms: _465  and  _466
REMARK  199  A    between atoms: _471  and  _472
REMARK  200  A    between atoms: _474  and  _476
REMARK  201  A    between atoms: _476  and  _477
REMARK  202  A    between atoms: _476  and  _479
REMARK  203  A    between atoms: _482  and  _484
REMARK  204  A    between atoms: _484  and  _485
REMARK  205  A    between atoms: _487  and  _489
REMARK  206  A    between atoms: _489  and  _490
REMARK  207  A    between atoms: _489  and  _492
REMARK  208  A    between atoms: _492  and  _493
REMARK  209  A    between atoms: _499  and  _501
REMARK  210  A    between atoms: _501  and  _502
REMARK  211  A    between atoms: _504  and  _506
REMARK  212  A    between atoms: _506  and  _507
REMARK  213  A    between atoms: _506  and  _509
REMARK  214  A    between atoms: _509  and  _510
REMARK  215  A    between atoms: _516  and  _518
REMARK  216  A    between atoms: _518  and  _519
REMARK  217  A    between atoms: _521  and  _523
REMARK  218  A    between atoms: _523  and  _524
REMARK  219  A    between atoms: _526  and  _528
REMARK  220  A    between atoms: _528  and  _529
REMARK  221  A    between atoms: _528  and  _531
REMARK  222  A    between atoms: _531  and  _532
REMARK  223  A    between atoms: _532  and  _533
REMARK  224  A    between atoms: _538  and  _540
REMARK  225  A    between atoms: _540  and  _541
REMARK  226  A    between atoms: _543  and  _545
REMARK  227  A    between atoms: _545  and  _546
REMARK  228  A    between atoms: _545  and  _548
REMARK  229  A    between atoms: _548  and  _549
REMARK  230  A    between atoms: _552  and  _554
REMARK  231  A    between atoms: _554  and  _555
REMARK  232  A    between atoms: _557  and  _559
REMARK  233  A    between atoms: _559  and  _560
REMARK  234  A    between atoms: _559  and  _562
REMARK  235  A    between atoms: _562  and  _563
REMARK  236  A    between atoms: _566  and  _568
REMARK  237  A    between atoms: _568  and  _569
REMARK  238  A    between atoms: _568  and  _571
REMARK  239  A    between atoms: _571  and  _572
REMARK  240  A    between atoms: _577  and  _579
REMARK  241  A    between atoms: _579  and  _580
REMARK  242  A    between atoms: _579  and  _582
REMARK  243  A    between atoms: _582  and  _583
REMARK  244  A    between atoms: _586  and  _588
REMARK  245  A    between atoms: _588  and  _589
REMARK  246  A    between atoms: _591  and  _593
REMARK  247  A    between atoms: _593  and  _594
REMARK  248  A    between atoms: _593  and  _596
REMARK  249  A    between atoms: _596  and  _597
REMARK  250  A    between atoms: _600  and  _602
REMARK  251  A    between atoms: _602  and  _603
REMARK  252  A    between atoms: _602  and  _605
REMARK                            x       y       z     vdW  Elec       q    Type
REMARK                         _______ _______ _______ _____ _____    ______ ____
ROOT
ATOM      1  O   HOH     1      -2.415  40.418   7.085  0.00  0.00    +0.000 OA
ENDROOT
TORSDOF 0
REMARK  Name = ../refined-set-2016/3uri/3uri_pocket.pdb
REMARK  252 active torsions:
REMARK  status: ('A' for Active; 'I' for Inactive)
REMARK    1  A    between atoms: _1  and  _3
REMARK    2  A    between atoms: _3  and  _4
REMARK    3  A    between atoms: _3  and  _6
REMARK    4  A    between atoms: _6  and  _7
REMARK    5  A    between atoms: _10  and  _12
REMARK    6  A    between atoms: _12  and  _13
REMARK    7  A    between atoms: _12  and  _15
REMARK    8  A    between atoms: _15  and  _16
REMARK    9  A    between atoms: _19  and  _21
REMARK   10  A    between atoms: _21  and  _22
REMARK   11  A    between atoms: _21  and  _24
REMARK   12  A    between atoms: _24  and  _25
REMARK   13  A    between atoms: _28  and  _30
REMARK   14  A    between atoms: _30  and  _31
REMARK   15  A    between atoms: _30  and  _33
REMARK   16  A    between atoms: _33  and  _34
REMARK   17  A    between atoms: _37  and  _39
REMARK   18  A    between atoms: _39  and  _40
REMARK   19  A    between atoms: _39  and  _42
REMARK   20  A    between atoms: _42  and  _43
REMARK   21  A    between atoms: _46  and  _48
REMARK   22  A    between atoms: _48  and  _49
REMARK   23  A    between atoms: _52  and  _54
REMARK   24  A    between atoms: _54  and  _55
REMARK   25  A    between atoms: _54  and  _57
REMARK   26  A    between atoms: _57  and  _58
REMARK   27  A    between atoms: _63  and  _64
REMARK   28  A    between atoms: _66  and  _68
REMARK   29  A    between atoms: _68  and  _69
REMARK   30  A    between atoms: _68  and  _71
REMARK   31  A    between atoms: _71  and  _72
REMARK   32  A    between atoms: _75  and  _77
REMARK   33  A    between atoms: _77  and  _78
REMARK   34  A    between atoms: _77  and  _80
REMARK   35  A    between atoms: _80  and  _81
REMARK   36  A    between atoms: _84  and  _86
REMARK   37  A    between atoms: _86  and  _87
REMARK   38  A    between atoms: _86  and  _89
REMARK   39  A    between atoms: _89  and  _90
REMARK   40  A    between atoms: _96  and  _98
REMARK   41  A    between atoms: _98  and  _99
REMARK   42  A    between atoms: _98  and  _101
REMARK   43  A    between atoms: _101  and  _102
REMARK   44  A    between atoms: _105  and  _107
REMARK   45  A    between atoms: _107  and  _108
REMARK   46  A    between atoms: _107  and  _110
REMARK   47  A    between atoms: _110  and  _111
REMARK   48  A    between atoms: _114  and  _116
REMARK   49  A    between atoms: _116  and  _117
REMARK   50  A    between atoms: _119  and  _121
REMARK   51  A    between atoms: _121  and  _122
REMARK   52  A    between atoms: _121  and  _124
REMARK   53  A    between atoms: _124  and  _125
REMARK   54  A    between atoms: _127  and  _129
REMARK   55  A    between atoms: _129  and  _130
REMARK   56  A    between atoms: _129  and  _132
REMARK   57  A    between atoms: _132  and  _133
REMARK   58  A    between atoms: _135  and  _137
REMARK   59  A    between atoms: _137  and  _138
REMARK   60  A    between atoms: _137  and  _140
REMARK   61  A    between atoms: _140  and  _141
REMARK   62  A    between atoms: _144  and  _146
REMARK   63  A    between atoms: _146  and  _147
REMARK   64  A    between atoms: _146  and  _149
REMARK   65  A    between atoms: _149  and  _150
REMARK   66  A    between atoms: _160  and  _162
REMARK   67  A    between atoms: _162  and  _163
REMARK   68  A    between atoms: _162  and  _165
REMARK   69  A    between atoms: _165  and  _166
REMARK   70  A    between atoms: _168  and  _170
REMARK   71  A    between atoms: _170  and  _171
REMARK   72  A    between atoms: _170  and  _173
REMARK   73  A    between atoms: _173  and  _174
REMARK   74  A    between atoms: _177  and  _179
REMARK   75  A    between atoms: _179  and  _180
REMARK   76  A    between atoms: _179  and  _182
REMARK   77  A    between atoms: _182  and  _183
REMARK   78  A    between atoms: _185  and  _187
REMARK   79  A    between atoms: _187  and  _188
REMARK   80  A    between atoms: _187  and  _190
REMARK   81  A    between atoms: _190  and  _191
REMARK   82  A    between atoms: _196  and  _197
REMARK   83  A    between atoms: _199  and  _201
REMARK   84  A    between atoms: _201  and  _202
REMARK   85  A    between atoms: _204  and  _206
REMARK   86  A    between atoms: _206  and  _207
REMARK   87  A    between atoms: _206  and  _209
REMARK   88  A    between atoms: _209  and  _210
REMARK   89  A    between atoms: _213  and  _215
REMARK   90  A    between atoms: _215  and  _216
REMARK   91  A    between atoms: _218  and  _220
REMARK   92  A    between atoms: _220  and  _221
REMARK   93  A    between atoms: _220  and  _223
REMARK   94  A    between atoms: _223  and  _224
REMARK   95  A    between atoms: _226  and  _228
REMARK   96  A    between atoms: _228  and  _229
REMARK   97  A    between atoms: _228  and  _231
REMARK   98  A    between atoms: _231  and  _232
REMARK   99  A    between atoms: _234  and  _236
REMARK  100  A    between atoms: _236  and  _237
REMARK  101  A    between atoms: _236  and  _239
REMARK  102  A    between atoms: _239  and  _240
REMARK  103  A    between atoms: _242  and  _244
REMARK  104  A    between atoms: _244  and  _245
REMARK  105  A    between atoms: _244  and  _247
REMARK  106  A    between atoms: _247  and  _248
REMARK  107  A    between atoms: _250  and  _252
REMARK  108  A    between atoms: _252  and  _253
REMARK  109  A    between atoms: _252  and  _255
REMARK  110  A    between atoms: _255  and  _256
REMARK  111  A    between atoms: _262  and  _264
REMARK  112  A    between atoms: _264  and  _265
REMARK  113  A    between atoms: _264  and  _267
REMARK  114  A    between atoms: _267  and  _268
REMARK  115  A    between atoms: _268  and  _269
REMARK  116  A    between atoms: _272  and  _274
REMARK  117  A    between atoms: _274  and  _275
REMARK  118  A    between atoms: _274  and  _277
REMARK  119  A    between atoms: _277  and  _278
REMARK  120  A    between atoms: _281  and  _283
REMARK  121  A    between atoms: _283  and  _284
REMARK  122  A    between atoms: _283  and  _286
REMARK  123  A    between atoms: _286  and  _287
REMARK  124  A    between atoms: _290  and  _292
REMARK  125  A    between atoms: _292  and  _293
REMARK  126  A    between atoms: _292  and  _295
REMARK  127  A    between atoms: _295  and  _296
REMARK  128  A    between atoms: _299  and  _301
REMARK  129  A    between atoms: _301  and  _302
REMARK  130  A    between atoms: _304  and  _306
REMARK  131  A    between atoms: _306  and  _307
REMARK  132  A    between atoms: _306  and  _309
REMARK  133  A    between atoms: _309  and  _310
REMARK  134  A    between atoms: _313  and  _315
REMARK  135  A    between atoms: _315  and  _316
REMARK  136  A    between atoms: _315  and  _318
REMARK  137  A    between atoms: _318  and  _319
REMARK  138  A    between atoms: _322  and  _324
REMARK  139  A    between atoms: _324  and  _325
REMARK  140  A    between atoms: _328  and  _330
REMARK  141  A    between atoms: _330  and  _331
REMARK  142  A    between atoms: _330  and  _333
REMARK  143  A    between atoms: _333  and  _334
REMARK  144  A    between atoms: _337  and  _339
REMARK  145  A    between atoms: _339  and  _340
REMARK  146  A    between atoms: _339  and  _342
REMARK  147  A    between atoms: _342  and  _343
REMARK  148  A    between atoms: _348  and  _350
REMARK  149  A    between atoms: _350  and  _351
REMARK  150  A    between atoms: _350  and  _353
REMARK  151  A    between atoms: _353  and  _354
REMARK  152  A    between atoms: _357  and  _359
REMARK  153  A    between atoms: _359  and  _360
REMARK  154  A    between atoms: _359  and  _362
REMARK  155  A    between atoms: _362  and  _363
REMARK  156  A    between atoms: _363  and  _364
REMARK  157  A    between atoms: _369  and  _371
REMARK  158  A    between atoms: _371  and  _372
REMARK  159  A    between atoms: _374  and  _376
REMARK  160  A    between atoms: _376  and  _377
REMARK  161  A    between atoms: _376  and  _379
REMARK  162  A    between atoms: _379  and  _380
REMARK  163  A    between atoms: _386  and  _388
REMARK  164  A    between atoms: _388  and  _389
REMARK  165  A    between atoms: _388  and  _391
REMARK  166  A    between atoms: _391  and  _392
REMARK  167  A    between atoms: _395  and  _397
REMARK  168  A    between atoms: _397  and  _398
REMARK  169  A    between atoms: _401  and  _403
REMARK  170  A    between atoms: _403  and  _404
REMARK  171  A    between atoms: _403  and  _406
REMARK  172  A    between atoms: _406  and  _407
REMARK  173  A    between atoms: _410  and  _412
REMARK  174  A    between atoms: _412  and  _413
REMARK  175  A    between atoms: _412  and  _415
REMARK  176  A    between atoms: _415  and  _416
REMARK  177  A    between atoms: _419  and  _421
REMARK  178  A    between atoms: _421  and  _422
REMARK  179  A    between atoms: _424  and  _426
REMARK  180  A    between atoms: _426  and  _427
REMARK  181  A    between atoms: _426  and  _429
REMARK  182  A    between atoms: _429  and  _430
REMARK  183  A    between atoms: _433  and  _435
REMARK  184  A    between atoms: _435  and  _436
REMARK  185  A    between atoms: _435  and  _438
REMARK  186  A    between atoms: _438  and  _439
REMARK  187  A    between atoms: _442  and  _444
REMARK  188  A    between atoms: _444  and  _445
REMARK  189  A    between atoms: _444  and  _447
REMARK  190  A    between atoms: _447  and  _448
REMARK  191  A    between atoms: _451  and  _453
REMARK  192  A    between atoms: _453  and  _454
REMARK  193  A    between atoms: _453  and  _456
REMARK  194  A    between atoms: _456  and  _457
REMARK  195  A    between atoms: _460  and  _462
REMARK  196  A    between atoms: _462  and  _463
REMARK  197  A    between atoms: _462  and  _465
REMARK  198  A    between atoms: _465  and  _466
REMARK  199  A    between atoms: _471  and  _472
REMARK  200  A    between atoms: _474  and  _476
REMARK  201  A    between atoms: _476  and  _477
REMARK  202  A    between atoms: _476  and  _479
REMARK  203  A    between atoms: _482  and  _484
REMARK  204  A    between atoms: _484  and  _485
REMARK  205  A    between atoms: _487  and  _489
REMARK  206  A    between atoms: _489  and  _490
REMARK  207  A    between atoms: _489  and  _492
REMARK  208  A    between atoms: _492  and  _493
REMARK  209  A    between atoms: _499  and  _501
REMARK  210  A    between atoms: _501  and  _502
REMARK  211  A    between atoms: _504  and  _506
REMARK  212  A    between atoms: _506  and  _507
REMARK  213  A    between atoms: _506  and  _509
REMARK  214  A    between atoms: _509  and  _510
REMARK  215  A    between atoms: _516  and  _518
REMARK  216  A    between atoms: _518  and  _519
REMARK  217  A    between atoms: _521  and  _523
REMARK  218  A    between atoms: _523  and  _524
REMARK  219  A    between atoms: _526  and  _528
REMARK  220  A    between atoms: _528  and  _529
REMARK  221  A    between atoms: _528  and  _531
REMARK  222  A    between atoms: _531  and  _532
REMARK  223  A    between atoms: _532  and  _533
REMARK  224  A    between atoms: _538  and  _540
REMARK  225  A    between atoms: _540  and  _541
REMARK  226  A    between atoms: _543  and  _545
REMARK  227  A    between atoms: _545  and  _546
REMARK  228  A    between atoms: _545  and  _548
REMARK  229  A    between atoms: _548  and  _549
REMARK  230  A    between atoms: _552  and  _554
REMARK  231  A    between atoms: _554  and  _555
REMARK  232  A    between atoms: _557  and  _559
REMARK  233  A    between atoms: _559  and  _560
REMARK  234  A    between atoms: _559  and  _562
REMARK  235  A    between atoms: _562  and  _563
REMARK  236  A    between atoms: _566  and  _568
REMARK  237  A    between atoms: _568  and  _569
REMARK  238  A    between atoms: _568  and  _571
REMARK  239  A    between atoms: _571  and  _572
REMARK  240  A    between atoms: _577  and  _579
REMARK  241  A    between atoms: _579  and  _580
REMARK  242  A    between atoms: _579  and  _582
REMARK  243  A    between atoms: _582  and  _583
REMARK  244  A    between atoms: _586  and  _588
REMARK  245  A    between atoms: _588  and  _589
REMARK  246  A    between atoms: _591  and  _593
REMARK  247  A    between atoms: _593  and  _594
REMARK  248  A    between atoms: _593  and  _596
REMARK  249  A    between atoms: _596  and  _597
REMARK  250  A    between atoms: _600  and  _602
REMARK  251  A    between atoms: _602  and  _603
REMARK  252  A    between atoms: _602  and  _605
REMARK                            x       y       z     vdW  Elec       q    Type
REMARK                         _______ _______ _______ _____ _____    ______ ____
ROOT
ATOM      1  O   HOH     1      -0.679  20.205  24.218  0.00  0.00    +0.000 OA
ENDROOT
TORSDOF 0
REMARK  Name = ../refined-set-2016/3uri/3uri_pocket.pdb
REMARK  252 active torsions:
REMARK  status: ('A' for Active; 'I' for Inactive)
REMARK    1  A    between atoms: _1  and  _3
REMARK    2  A    between atoms: _3  and  _4
REMARK    3  A    between atoms: _3  and  _6
REMARK    4  A    between atoms: _6  and  _7
REMARK    5  A    between atoms: _10  and  _12
REMARK    6  A    between atoms: _12  and  _13
REMARK    7  A    between atoms: _12  and  _15
REMARK    8  A    between atoms: _15  and  _16
REMARK    9  A    between atoms: _19  and  _21
REMARK   10  A    between atoms: _21  and  _22
REMARK   11  A    between atoms: _21  and  _24
REMARK   12  A    between atoms: _24  and  _25
REMARK   13  A    between atoms: _28  and  _30
REMARK   14  A    between atoms: _30  and  _31
REMARK   15  A    between atoms: _30  and  _33
REMARK   16  A    between atoms: _33  and  _34
REMARK   17  A    between atoms: _37  and  _39
REMARK   18  A    between atoms: _39  and  _40
REMARK   19  A    between atoms: _39  and  _42
REMARK   20  A    between atoms: _42  and  _43
REMARK   21  A    between atoms: _46  and  _48
REMARK   22  A    between atoms: _48  and  _49
REMARK   23  A    between atoms: _52  and  _54
REMARK   24  A    between atoms: _54  and  _55
REMARK   25  A    between atoms: _54  and  _57
REMARK   26  A    between atoms: _57  and  _58
REMARK   27  A    between atoms: _63  and  _64
REMARK   28  A    between atoms: _66  and  _68
REMARK   29  A    between atoms: _68  and  _69
REMARK   30  A    between atoms: _68  and  _71
REMARK   31  A    between atoms: _71  and  _72
REMARK   32  A    between atoms: _75  and  _77
REMARK   33  A    between atoms: _77  and  _78
REMARK   34  A    between atoms: _77  and  _80
REMARK   35  A    between atoms: _80  and  _81
REMARK   36  A    between atoms: _84  and  _86
REMARK   37  A    between atoms: _86  and  _87
REMARK   38  A    between atoms: _86  and  _89
REMARK   39  A    between atoms: _89  and  _90
REMARK   40  A    between atoms: _96  and  _98
REMARK   41  A    between atoms: _98  and  _99
REMARK   42  A    between atoms: _98  and  _101
REMARK   43  A    between atoms: _101  and  _102
REMARK   44  A    between atoms: _105  and  _107
REMARK   45  A    between atoms: _107  and  _108
REMARK   46  A    between atoms: _107  and  _110
REMARK   47  A    between atoms: _110  and  _111
REMARK   48  A    between atoms: _114  and  _116
REMARK   49  A    between atoms: _116  and  _117
REMARK   50  A    between atoms: _119  and  _121
REMARK   51  A    between atoms: _121  and  _122
REMARK   52  A    between atoms: _121  and  _124
REMARK   53  A    between atoms: _124  and  _125
REMARK   54  A    between atoms: _127  and  _129
REMARK   55  A    between atoms: _129  and  _130
REMARK   56  A    between atoms: _129  and  _132
REMARK   57  A    between atoms: _132  and  _133
REMARK   58  A    between atoms: _135  and  _137
REMARK   59  A    between atoms: _137  and  _138
REMARK   60  A    between atoms: _137  and  _140
REMARK   61  A    between atoms: _140  and  _141
REMARK   62  A    between atoms: _144  and  _146
REMARK   63  A    between atoms: _146  and  _147
REMARK   64  A    between atoms: _146  and  _149
REMARK   65  A    between atoms: _149  and  _150
REMARK   66  A    between atoms: _160  and  _162
REMARK   67  A    between atoms: _162  and  _163
REMARK   68  A    between atoms: _162  and  _165
REMARK   69  A    between atoms: _165  and  _166
REMARK   70  A    between atoms: _168  and  _170
REMARK   71  A    between atoms: _170  and  _171
REMARK   72  A    between atoms: _170  and  _173
REMARK   73  A    between atoms: _173  and  _174
REMARK   74  A    between atoms: _177  and  _179
REMARK   75  A    between atoms: _179  and  _180
REMARK   76  A    between atoms: _179  and  _182
REMARK   77  A    between atoms: _182  and  _183
REMARK   78  A    between atoms: _185  and  _187
REMARK   79  A    between atoms: _187  and  _188
REMARK   80  A    between atoms: _187  and  _190
REMARK   81  A    between atoms: _190  and  _191
REMARK   82  A    between atoms: _196  and  _197
REMARK   83  A    between atoms: _199  and  _201
REMARK   84  A    between atoms: _201  and  _202
REMARK   85  A    between atoms: _204  and  _206
REMARK   86  A    between atoms: _206  and  _207
REMARK   87  A    between atoms: _206  and  _209
REMARK   88  A    between atoms: _209  and  _210
REMARK   89  A    between atoms: _213  and  _215
REMARK   90  A    between atoms: _215  and  _216
REMARK   91  A    between atoms: _218  and  _220
REMARK   92  A    between atoms: _220  and  _221
REMARK   93  A    between atoms: _220  and  _223
REMARK   94  A    between atoms: _223  and  _224
REMARK   95  A    between atoms: _226  and  _228
REMARK   96  A    between atoms: _228  and  _229
REMARK   97  A    between atoms: _228  and  _231
REMARK   98  A    between atoms: _231  and  _232
REMARK   99  A    between atoms: _234  and  _236
REMARK  100  A    between atoms: _236  and  _237
REMARK  101  A    between atoms: _236  and  _239
REMARK  102  A    between atoms: _239  and  _240
REMARK  103  A    between atoms: _242  and  _244
REMARK  104  A    between atoms: _244  and  _245
REMARK  105  A    between atoms: _244  and  _247
REMARK  106  A    between atoms: _247  and  _248
REMARK  107  A    between atoms: _250  and  _252
REMARK  108  A    between atoms: _252  and  _253
REMARK  109  A    between atoms: _252  and  _255
REMARK  110  A    between atoms: _255  and  _256
REMARK  111  A    between atoms: _262  and  _264
REMARK  112  A    between atoms: _264  and  _265
REMARK  113  A    between atoms: _264  and  _267
REMARK  114  A    between atoms: _267  and  _268
REMARK  115  A    between atoms: _268  and  _269
REMARK  116  A    between atoms: _272  and  _274
REMARK  117  A    between atoms: _274  and  _275
REMARK  118  A    between atoms: _274  and  _277
REMARK  119  A    between atoms: _277  and  _278
REMARK  120  A    between atoms: _281  and  _283
REMARK  121  A    between atoms: _283  and  _284
REMARK  122  A    between atoms: _283  and  _286
REMARK  123  A    between atoms: _286  and  _287
REMARK  124  A    between atoms: _290  and  _292
REMARK  125  A    between atoms: _292  and  _293
REMARK  126  A    between atoms: _292  and  _295
REMARK  127  A    between atoms: _295  and  _296
REMARK  128  A    between atoms: _299  and  _301
REMARK  129  A    between atoms: _301  and  _302
REMARK  130  A    between atoms: _304  and  _306
REMARK  131  A    between atoms: _306  and  _307
REMARK  132  A    between atoms: _306  and  _309
REMARK  133  A    between atoms: _309  and  _310
REMARK  134  A    between atoms: _313  and  _315
REMARK  135  A    between atoms: _315  and  _316
REMARK  136  A    between atoms: _315  and  _318
REMARK  137  A    between atoms: _318  and  _319
REMARK  138  A    between atoms: _322  and  _324
REMARK  139  A    between atoms: _324  and  _325
REMARK  140  A    between atoms: _328  and  _330
REMARK  141  A    between atoms: _330  and  _331
REMARK  142  A    between atoms: _330  and  _333
REMARK  143  A    between atoms: _333  and  _334
REMARK  144  A    between atoms: _337  and  _339
REMARK  145  A    between atoms: _339  and  _340
REMARK  146  A    between atoms: _339  and  _342
REMARK  147  A    between atoms: _342  and  _343
REMARK  148  A    between atoms: _348  and  _350
REMARK  149  A    between atoms: _350  and  _351
REMARK  150  A    between atoms: _350  and  _353
REMARK  151  A    between atoms: _353  and  _354
REMARK  152  A    between atoms: _357  and  _359
REMARK  153  A    between atoms: _359  and  _360
REMARK  154  A    between atoms: _359  and  _362
REMARK  155  A    between atoms: _362  and  _363
REMARK  156  A    between atoms: _363  and  _364
REMARK  157  A    between atoms: _369  and  _371
REMARK  158  A    between atoms: _371  and  _372
REMARK  159  A    between atoms: _374  and  _376
REMARK  160  A    between atoms: _376  and  _377
REMARK  161  A    between atoms: _376  and  _379
REMARK  162  A    between atoms: _379  and  _380
REMARK  163  A    between atoms: _386  and  _388
REMARK  164  A    between atoms: _388  and  _389
REMARK  165  A    between atoms: _388  and  _391
REMARK  166  A    between atoms: _391  and  _392
REMARK  167  A    between atoms: _395  and  _397
REMARK  168  A    between atoms: _397  and  _398
REMARK  169  A    between atoms: _401  and  _403
REMARK  170  A    between atoms: _403  and  _404
REMARK  171  A    between atoms: _403  and  _406
REMARK  172  A    between atoms: _406  and  _407
REMARK  173  A    between atoms: _410  and  _412
REMARK  174  A    between atoms: _412  and  _413
REMARK  175  A    between atoms: _412  and  _415
REMARK  176  A    between atoms: _415  and  _416
REMARK  177  A    between atoms: _419  and  _421
REMARK  178  A    between atoms: _421  and  _422
REMARK  179  A    between atoms: _424  and  _426
REMARK  180  A    between atoms: _426  and  _427
REMARK  181  A    between atoms: _426  and  _429
REMARK  182  A    between atoms: _429  and  _430
REMARK  183  A    between atoms: _433  and  _435
REMARK  184  A    between atoms: _435  and  _436
REMARK  185  A    between atoms: _435  and  _438
REMARK  186  A    between atoms: _438  and  _439
REMARK  187  A    between atoms: _442  and  _444
REMARK  188  A    between atoms: _444  and  _445
REMARK  189  A    between atoms: _444  and  _447
REMARK  190  A    between atoms: _447  and  _448
REMARK  191  A    between atoms: _451  and  _453
REMARK  192  A    between atoms: _453  and  _454
REMARK  193  A    between atoms: _453  and  _456
REMARK  194  A    between atoms: _456  and  _457
REMARK  195  A    between atoms: _460  and  _462
REMARK  196  A    between atoms: _462  and  _463
REMARK  197  A    between atoms: _462  and  _465
REMARK  198  A    between atoms: _465  and  _466
REMARK  199  A    between atoms: _471  and  _472
REMARK  200  A    between atoms: _474  and  _476
REMARK  201  A    between atoms: _476  and  _477
REMARK  202  A    between atoms: _476  and  _479
REMARK  203  A    between atoms: _482  and  _484
REMARK  204  A    between atoms: _484  and  _485
REMARK  205  A    between atoms: _487  and  _489
REMARK  206  A    between atoms: _489  and  _490
REMARK  207  A    between atoms: _489  and  _492
REMARK  208  A    between atoms: _492  and  _493
REMARK  209  A    between atoms: _499  and  _501
REMARK  210  A    between atoms: _501  and  _502
REMARK  211  A    between atoms: _504  and  _506
REMARK  212  A    between atoms: _506  and  _507
REMARK  213  A    between atoms: _506  and  _509
REMARK  214  A    between atoms: _509  and  _510
REMARK  215  A    between atoms: _516  and  _518
REMARK  216  A    between atoms: _518  and  _519
REMARK  217  A    between atoms: _521  and  _523
REMARK  218  A    between atoms: _523  and  _524
REMARK  219  A    between atoms: _526  and  _528
REMARK  220  A    between atoms: _528  and  _529
REMARK  221  A    between atoms: _528  and  _531
REMARK  222  A    between atoms: _531  and  _532
REMARK  223  A    between atoms: _532  and  _533
REMARK  224  A    between atoms: _538  and  _540
REMARK  225  A    between atoms: _540  and  _541
REMARK  226  A    between atoms: _543  and  _545
REMARK  227  A    between atoms: _545  and  _546
REMARK  228  A    between atoms: _545  and  _548
REMARK  229  A    between atoms: _548  and  _549
REMARK  230  A    between atoms: _552  and  _554
REMARK  231  A    between atoms: _554  and  _555
REMARK  232  A    between atoms: _557  and  _559
REMARK  233  A    between atoms: _559  and  _560
REMARK  234  A    between atoms: _559  and  _562
REMARK  235  A    between atoms: _562  and  _563
REMARK  236  A    between atoms: _566  and  _568
REMARK  237  A    between atoms: _568  and  _569
REMARK  238  A    between atoms: _568  and  _571
REMARK  239  A    between atoms: _571  and  _572
REMARK  240  A    between atoms: _577  and  _579
REMARK  241  A    between atoms: _579  and  _580
REMARK  242  A    between atoms: _579  and  _582
REMARK  243  A    between atoms: _582  and  _583
REMARK  244  A    between atoms: _586  and  _588
REMARK  245  A    between atoms: _588  and  _589
REMARK  246  A    between atoms: _591  and  _593
REMARK  247  A    between atoms: _593  and  _594
REMARK  248  A    between atoms: _593  and  _596
REMARK  249  A    between atoms: _596  and  _597
REMARK  250  A    between atoms: _600  and  _602
REMARK  251  A    between atoms: _602  and  _603
REMARK  252  A    between atoms: _602  and  _605
REMARK                            x       y       z     vdW  Elec       q    Type
REMARK                         _______ _______ _______ _____ _____    ______ ____
ROOT
ATOM      1  O   HOH     1       2.174  45.999   8.173  0.00  0.00    +0.000 OA
ENDROOT
TORSDOF 0
REMARK  Name = ../refined-set-2016/3uri/3uri_pocket.pdb
REMARK  252 active torsions:
REMARK  status: ('A' for Active; 'I' for Inactive)
REMARK    1  A    between atoms: _1  and  _3
REMARK    2  A    between atoms: _3  and  _4
REMARK    3  A    between atoms: _3  and  _6
REMARK    4  A    between atoms: _6  and  _7
REMARK    5  A    between atoms: _10  and  _12
REMARK    6  A    between atoms: _12  and  _13
REMARK    7  A    between atoms: _12  and  _15
REMARK    8  A    between atoms: _15  and  _16
REMARK    9  A    between atoms: _19  and  _21
REMARK   10  A    between atoms: _21  and  _22
REMARK   11  A    between atoms: _21  and  _24
REMARK   12  A    between atoms: _24  and  _25
REMARK   13  A    between atoms: _28  and  _30
REMARK   14  A    between atoms: _30  and  _31
REMARK   15  A    between atoms: _30  and  _33
REMARK   16  A    between atoms: _33  and  _34
REMARK   17  A    between atoms: _37  and  _39
REMARK   18  A    between atoms: _39  and  _40
REMARK   19  A    between atoms: _39  and  _42
REMARK   20  A    between atoms: _42  and  _43
REMARK   21  A    between atoms: _46  and  _48
REMARK   22  A    between atoms: _48  and  _49
REMARK   23  A    between atoms: _52  and  _54
REMARK   24  A    between atoms: _54  and  _55
REMARK   25  A    between atoms: _54  and  _57
REMARK   26  A    between atoms: _57  and  _58
REMARK   27  A    between atoms: _63  and  _64
REMARK   28  A    between atoms: _66  and  _68
REMARK   29  A    between atoms: _68  and  _69
REMARK   30  A    between atoms: _68  and  _71
REMARK   31  A    between atoms: _71  and  _72
REMARK   32  A    between atoms: _75  and  _77
REMARK   33  A    between atoms: _77  and  _78
REMARK   34  A    between atoms: _77  and  _80
REMARK   35  A    between atoms: _80  and  _81
REMARK   36  A    between atoms: _84  and  _86
REMARK   37  A    between atoms: _86  and  _87
REMARK   38  A    between atoms: _86  and  _89
REMARK   39  A    between atoms: _89  and  _90
REMARK   40  A    between atoms: _96  and  _98
REMARK   41  A    between atoms: _98  and  _99
REMARK   42  A    between atoms: _98  and  _101
REMARK   43  A    between atoms: _101  and  _102
REMARK   44  A    between atoms: _105  and  _107
REMARK   45  A    between atoms: _107  and  _108
REMARK   46  A    between atoms: _107  and  _110
REMARK   47  A    between atoms: _110  and  _111
REMARK   48  A    between atoms: _114  and  _116
REMARK   49  A    between atoms: _116  and  _117
REMARK   50  A    between atoms: _119  and  _121
REMARK   51  A    between atoms: _121  and  _122
REMARK   52  A    between atoms: _121  and  _124
REMARK   53  A    between atoms: _124  and  _125
REMARK   54  A    between atoms: _127  and  _129
REMARK   55  A    between atoms: _129  and  _130
REMARK   56  A    between atoms: _129  and  _132
REMARK   57  A    between atoms: _132  and  _133
REMARK   58  A    between atoms: _135  and  _137
REMARK   59  A    between atoms: _137  and  _138
REMARK   60  A    between atoms: _137  and  _140
REMARK   61  A    between atoms: _140  and  _141
REMARK   62  A    between atoms: _144  and  _146
REMARK   63  A    between atoms: _146  and  _147
REMARK   64  A    between atoms: _146  and  _149
REMARK   65  A    between atoms: _149  and  _150
REMARK   66  A    between atoms: _160  and  _162
REMARK   67  A    between atoms: _162  and  _163
REMARK   68  A    between atoms: _162  and  _165
REMARK   69  A    between atoms: _165  and  _166
REMARK   70  A    between atoms: _168  and  _170
REMARK   71  A    between atoms: _170  and  _171
REMARK   72  A    between atoms: _170  and  _173
REMARK   73  A    between atoms: _173  and  _174
REMARK   74  A    between atoms: _177  and  _179
REMARK   75  A    between atoms: _179  and  _180
REMARK   76  A    between atoms: _179  and  _182
REMARK   77  A    between atoms: _182  and  _183
REMARK   78  A    between atoms: _185  and  _187
REMARK   79  A    between atoms: _187  and  _188
REMARK   80  A    between atoms: _187  and  _190
REMARK   81  A    between atoms: _190  and  _191
REMARK   82  A    between atoms: _196  and  _197
REMARK   83  A    between atoms: _199  and  _201
REMARK   84  A    between atoms: _201  and  _202
REMARK   85  A    between atoms: _204  and  _206
REMARK   86  A    between atoms: _206  and  _207
REMARK   87  A    between atoms: _206  and  _209
REMARK   88  A    between atoms: _209  and  _210
REMARK   89  A    between atoms: _213  and  _215
REMARK   90  A    between atoms: _215  and  _216
REMARK   91  A    between atoms: _218  and  _220
REMARK   92  A    between atoms: _220  and  _221
REMARK   93  A    between atoms: _220  and  _223
REMARK   94  A    between atoms: _223  and  _224
REMARK   95  A    between atoms: _226  and  _228
REMARK   96  A    between atoms: _228  and  _229
REMARK   97  A    between atoms: _228  and  _231
REMARK   98  A    between atoms: _231  and  _232
REMARK   99  A    between atoms: _234  and  _236
REMARK  100  A    between atoms: _236  and  _237
REMARK  101  A    between atoms: _236  and  _239
REMARK  102  A    between atoms: _239  and  _240
REMARK  103  A    between atoms: _242  and  _244
REMARK  104  A    between atoms: _244  and  _245
REMARK  105  A    between atoms: _244  and  _247
REMARK  106  A    between atoms: _247  and  _248
REMARK  107  A    between atoms: _250  and  _252
REMARK  108  A    between atoms: _252  and  _253
REMARK  109  A    between atoms: _252  and  _255
REMARK  110  A    between atoms: _255  and  _256
REMARK  111  A    between atoms: _262  and  _264
REMARK  112  A    between atoms: _264  and  _265
REMARK  113  A    between atoms: _264  and  _267
REMARK  114  A    between atoms: _267  and  _268
REMARK  115  A    between atoms: _268  and  _269
REMARK  116  A    between atoms: _272  and  _274
REMARK  117  A    between atoms: _274  and  _275
REMARK  118  A    between atoms: _274  and  _277
REMARK  119  A    between atoms: _277  and  _278
REMARK  120  A    between atoms: _281  and  _283
REMARK  121  A    between atoms: _283  and  _284
REMARK  122  A    between atoms: _283  and  _286
REMARK  123  A    between atoms: _286  and  _287
REMARK  124  A    between atoms: _290  and  _292
REMARK  125  A    between atoms: _292  and  _293
REMARK  126  A    between atoms: _292  and  _295
REMARK  127  A    between atoms: _295  and  _296
REMARK  128  A    between atoms: _299  and  _301
REMARK  129  A    between atoms: _301  and  _302
REMARK  130  A    between atoms: _304  and  _306
REMARK  131  A    between atoms: _306  and  _307
REMARK  132  A    between atoms: _306  and  _309
REMARK  133  A    between atoms: _309  and  _310
REMARK  134  A    between atoms: _313  and  _315
REMARK  135  A    between atoms: _315  and  _316
REMARK  136  A    between atoms: _315  and  _318
REMARK  137  A    between atoms: _318  and  _319
REMARK  138  A    between atoms: _322  and  _324
REMARK  139  A    between atoms: _324  and  _325
REMARK  140  A    between atoms: _328  and  _330
REMARK  141  A    between atoms: _330  and  _331
REMARK  142  A    between atoms: _330  and  _333
REMARK  143  A    between atoms: _333  and  _334
REMARK  144  A    between atoms: _337  and  _339
REMARK  145  A    between atoms: _339  and  _340
REMARK  146  A    between atoms: _339  and  _342
REMARK  147  A    between atoms: _342  and  _343
REMARK  148  A    between atoms: _348  and  _350
REMARK  149  A    between atoms: _350  and  _351
REMARK  150  A    between atoms: _350  and  _353
REMARK  151  A    between atoms: _353  and  _354
REMARK  152  A    between atoms: _357  and  _359
REMARK  153  A    between atoms: _359  and  _360
REMARK  154  A    between atoms: _359  and  _362
REMARK  155  A    between atoms: _362  and  _363
REMARK  156  A    between atoms: _363  and  _364
REMARK  157  A    between atoms: _369  and  _371
REMARK  158  A    between atoms: _371  and  _372
REMARK  159  A    between atoms: _374  and  _376
REMARK  160  A    between atoms: _376  and  _377
REMARK  161  A    between atoms: _376  and  _379
REMARK  162  A    between atoms: _379  and  _380
REMARK  163  A    between atoms: _386  and  _388
REMARK  164  A    between atoms: _388  and  _389
REMARK  165  A    between atoms: _388  and  _391
REMARK  166  A    between atoms: _391  and  _392
REMARK  167  A    between atoms: _395  and  _397
REMARK  168  A    between atoms: _397  and  _398
REMARK  169  A    between atoms: _401  and  _403
REMARK  170  A    between atoms: _403  and  _404
REMARK  171  A    between atoms: _403  and  _406
REMARK  172  A    between atoms: _406  and  _407
REMARK  173  A    between atoms: _410  and  _412
REMARK  174  A    between atoms: _412  and  _413
REMARK  175  A    between atoms: _412  and  _415
REMARK  176  A    between atoms: _415  and  _416
REMARK  177  A    between atoms: _419  and  _421
REMARK  178  A    between atoms: _421  and  _422
REMARK  179  A    between atoms: _424  and  _426
REMARK  180  A    between atoms: _426  and  _427
REMARK  181  A    between atoms: _426  and  _429
REMARK  182  A    between atoms: _429  and  _430
REMARK  183  A    between atoms: _433  and  _435
REMARK  184  A    between atoms: _435  and  _436
REMARK  185  A    between atoms: _435  and  _438
REMARK  186  A    between atoms: _438  and  _439
REMARK  187  A    between atoms: _442  and  _444
REMARK  188  A    between atoms: _444  and  _445
REMARK  189  A    between atoms: _444  and  _447
REMARK  190  A    between atoms: _447  and  _448
REMARK  191  A    between atoms: _451  and  _453
REMARK  192  A    between atoms: _453  and  _454
REMARK  193  A    between atoms: _453  and  _456
REMARK  194  A    between atoms: _456  and  _457
REMARK  195  A    between atoms: _460  and  _462
REMARK  196  A    between atoms: _462  and  _463
REMARK  197  A    between atoms: _462  and  _465
REMARK  198  A    between atoms: _465  and  _466
REMARK  199  A    between atoms: _471  and  _472
REMARK  200  A    between atoms: _474  and  _476
REMARK  201  A    between atoms: _476  and  _477
REMARK  202  A    between atoms: _476  and  _479
REMARK  203  A    between atoms: _482  and  _484
REMARK  204  A    between atoms: _484  and  _485
REMARK  205  A    between atoms: _487  and  _489
REMARK  206  A    between atoms: _489  and  _490
REMARK  207  A    between atoms: _489  and  _492
REMARK  208  A    between atoms: _492  and  _493
REMARK  209  A    between atoms: _499  and  _501
REMARK  210  A    between atoms: _501  and  _502
REMARK  211  A    between atoms: _504  and  _506
REMARK  212  A    between atoms: _506  and  _507
REMARK  213  A    between atoms: _506  and  _509
REMARK  214  A    between atoms: _509  and  _510
REMARK  215  A    between atoms: _516  and  _518
REMARK  216  A    between atoms: _518  and  _519
REMARK  217  A    between atoms: _521  and  _523
REMARK  218  A    between atoms: _523  and  _524
REMARK  219  A    between atoms: _526  and  _528
REMARK  220  A    between atoms: _528  and  _529
REMARK  221  A    between atoms: _528  and  _531
REMARK  222  A    between atoms: _531  and  _532
REMARK  223  A    between atoms: _532  and  _533
REMARK  224  A    between atoms: _538  and  _540
REMARK  225  A    between atoms: _540  and  _541
REMARK  226  A    between atoms: _543  and  _545
REMARK  227  A    between atoms: _545  and  _546
REMARK  228  A    between atoms: _545  and  _548
REMARK  229  A    between atoms: _548  and  _549
REMARK  230  A    between atoms: _552  and  _554
REMARK  231  A    between atoms: _554  and  _555
REMARK  232  A    between atoms: _557  and  _559
REMARK  233  A    between atoms: _559  and  _560
REMARK  234  A    between atoms: _559  and  _562
REMARK  235  A    between atoms: _562  and  _563
REMARK  236  A    between atoms: _566  and  _568
REMARK  237  A    between atoms: _568  and  _569
REMARK  238  A    between atoms: _568  and  _571
REMARK  239  A    between atoms: _571  and  _572
REMARK  240  A    between atoms: _577  and  _579
REMARK  241  A    between atoms: _579  and  _580
REMARK  242  A    between atoms: _579  and  _582
REMARK  243  A    between atoms: _582  and  _583
REMARK  244  A    between atoms: _586  and  _588
REMARK  245  A    between atoms: _588  and  _589
REMARK  246  A    between atoms: _591  and  _593
REMARK  247  A    between atoms: _593  and  _594
REMARK  248  A    between atoms: _593  and  _596
REMARK  249  A    between atoms: _596  and  _597
REMARK  250  A    between atoms: _600  and  _602
REMARK  251  A    between atoms: _602  and  _603
REMARK  252  A    between atoms: _602  and  _605
REMARK                            x       y       z     vdW  Elec       q    Type
REMARK                         _______ _______ _______ _____ _____    ______ ____
ROOT
ATOM      1  O   HOH     1      -1.493  43.391   6.030  0.00  0.00    +0.000 OA
ENDROOT
TORSDOF 0
REMARK  Name = ../refined-set-2016/3uri/3uri_pocket.pdb
REMARK  252 active torsions:
REMARK  status: ('A' for Active; 'I' for Inactive)
REMARK    1  A    between atoms: _1  and  _3
REMARK    2  A    between atoms: _3  and  _4
REMARK    3  A    between atoms: _3  and  _6
REMARK    4  A    between atoms: _6  and  _7
REMARK    5  A    between atoms: _10  and  _12
REMARK    6  A    between atoms: _12  and  _13
REMARK    7  A    between atoms: _12  and  _15
REMARK    8  A    between atoms: _15  and  _16
REMARK    9  A    between atoms: _19  and  _21
REMARK   10  A    between atoms: _21  and  _22
REMARK   11  A    between atoms: _21  and  _24
REMARK   12  A    between atoms: _24  and  _25
REMARK   13  A    between atoms: _28  and  _30
REMARK   14  A    between atoms: _30  and  _31
REMARK   15  A    between atoms: _30  and  _33
REMARK   16  A    between atoms: _33  and  _34
REMARK   17  A    between atoms: _37  and  _39
REMARK   18  A    between atoms: _39  and  _40
REMARK   19  A    between atoms: _39  and  _42
REMARK   20  A    between atoms: _42  and  _43
REMARK   21  A    between atoms: _46  and  _48
REMARK   22  A    between atoms: _48  and  _49
REMARK   23  A    between atoms: _52  and  _54
REMARK   24  A    between atoms: _54  and  _55
REMARK   25  A    between atoms: _54  and  _57
REMARK   26  A    between atoms: _57  and  _58
REMARK   27  A    between atoms: _63  and  _64
REMARK   28  A    between atoms: _66  and  _68
REMARK   29  A    between atoms: _68  and  _69
REMARK   30  A    between atoms: _68  and  _71
REMARK   31  A    between atoms: _71  and  _72
REMARK   32  A    between atoms: _75  and  _77
REMARK   33  A    between atoms: _77  and  _78
REMARK   34  A    between atoms: _77  and  _80
REMARK   35  A    between atoms: _80  and  _81
REMARK   36  A    between atoms: _84  and  _86
REMARK   37  A    between atoms: _86  and  _87
REMARK   38  A    between atoms: _86  and  _89
REMARK   39  A    between atoms: _89  and  _90
REMARK   40  A    between atoms: _96  and  _98
REMARK   41  A    between atoms: _98  and  _99
REMARK   42  A    between atoms: _98  and  _101
REMARK   43  A    between atoms: _101  and  _102
REMARK   44  A    between atoms: _105  and  _107
REMARK   45  A    between atoms: _107  and  _108
REMARK   46  A    between atoms: _107  and  _110
REMARK   47  A    between atoms: _110  and  _111
REMARK   48  A    between atoms: _114  and  _116
REMARK   49  A    between atoms: _116  and  _117
REMARK   50  A    between atoms: _119  and  _121
REMARK   51  A    between atoms: _121  and  _122
REMARK   52  A    between atoms: _121  and  _124
REMARK   53  A    between atoms: _124  and  _125
REMARK   54  A    between atoms: _127  and  _129
REMARK   55  A    between atoms: _129  and  _130
REMARK   56  A    between atoms: _129  and  _132
REMARK   57  A    between atoms: _132  and  _133
REMARK   58  A    between atoms: _135  and  _137
REMARK   59  A    between atoms: _137  and  _138
REMARK   60  A    between atoms: _137  and  _140
REMARK   61  A    between atoms: _140  and  _141
REMARK   62  A    between atoms: _144  and  _146
REMARK   63  A    between atoms: _146  and  _147
REMARK   64  A    between atoms: _146  and  _149
REMARK   65  A    between atoms: _149  and  _150
REMARK   66  A    between atoms: _160  and  _162
REMARK   67  A    between atoms: _162  and  _163
REMARK   68  A    between atoms: _162  and  _165
REMARK   69  A    between atoms: _165  and  _166
REMARK   70  A    between atoms: _168  and  _170
REMARK   71  A    between atoms: _170  and  _171
REMARK   72  A    between atoms: _170  and  _173
REMARK   73  A    between atoms: _173  and  _174
REMARK   74  A    between atoms: _177  and  _179
REMARK   75  A    between atoms: _179  and  _180
REMARK   76  A    between atoms: _179  and  _182
REMARK   77  A    between atoms: _182  and  _183
REMARK   78  A    between atoms: _185  and  _187
REMARK   79  A    between atoms: _187  and  _188
REMARK   80  A    between atoms: _187  and  _190
REMARK   81  A    between atoms: _190  and  _191
REMARK   82  A    between atoms: _196  and  _197
REMARK   83  A    between atoms: _199  and  _201
REMARK   84  A    between atoms: _201  and  _202
REMARK   85  A    between atoms: _204  and  _206
REMARK   86  A    between atoms: _206  and  _207
REMARK   87  A    between atoms: _206  and  _209
REMARK   88  A    between atoms: _209  and  _210
REMARK   89  A    between atoms: _213  and  _215
REMARK   90  A    between atoms: _215  and  _216
REMARK   91  A    between atoms: _218  and  _220
REMARK   92  A    between atoms: _220  and  _221
REMARK   93  A    between atoms: _220  and  _223
REMARK   94  A    between atoms: _223  and  _224
REMARK   95  A    between atoms: _226  and  _228
REMARK   96  A    between atoms: _228  and  _229
REMARK   97  A    between atoms: _228  and  _231
REMARK   98  A    between atoms: _231  and  _232
REMARK   99  A    between atoms: _234  and  _236
REMARK  100  A    between atoms: _236  and  _237
REMARK  101  A    between atoms: _236  and  _239
REMARK  102  A    between atoms: _239  and  _240
REMARK  103  A    between atoms: _242  and  _244
REMARK  104  A    between atoms: _244  and  _245
REMARK  105  A    between atoms: _244  and  _247
REMARK  106  A    between atoms: _247  and  _248
REMARK  107  A    between atoms: _250  and  _252
REMARK  108  A    between atoms: _252  and  _253
REMARK  109  A    between atoms: _252  and  _255
REMARK  110  A    between atoms: _255  and  _256
REMARK  111  A    between atoms: _262  and  _264
REMARK  112  A    between atoms: _264  and  _265
REMARK  113  A    between atoms: _264  and  _267
REMARK  114  A    between atoms: _267  and  _268
REMARK  115  A    between atoms: _268  and  _269
REMARK  116  A    between atoms: _272  and  _274
REMARK  117  A    between atoms: _274  and  _275
REMARK  118  A    between atoms: _274  and  _277
REMARK  119  A    between atoms: _277  and  _278
REMARK  120  A    between atoms: _281  and  _283
REMARK  121  A    between atoms: _283  and  _284
REMARK  122  A    between atoms: _283  and  _286
REMARK  123  A    between atoms: _286  and  _287
REMARK  124  A    between atoms: _290  and  _292
REMARK  125  A    between atoms: _292  and  _293
REMARK  126  A    between atoms: _292  and  _295
REMARK  127  A    between atoms: _295  and  _296
REMARK  128  A    between atoms: _299  and  _301
REMARK  129  A    between atoms: _301  and  _302
REMARK  130  A    between atoms: _304  and  _306
REMARK  131  A    between atoms: _306  and  _307
REMARK  132  A    between atoms: _306  and  _309
REMARK  133  A    between atoms: _309  and  _310
REMARK  134  A    between atoms: _313  and  _315
REMARK  135  A    between atoms: _315  and  _316
REMARK  136  A    between atoms: _315  and  _318
REMARK  137  A    between atoms: _318  and  _319
REMARK  138  A    between atoms: _322  and  _324
REMARK  139  A    between atoms: _324  and  _325
REMARK  140  A    between atoms: _328  and  _330
REMARK  141  A    between atoms: _330  and  _331
REMARK  142  A    between atoms: _330  and  _333
REMARK  143  A    between atoms: _333  and  _334
REMARK  144  A    between atoms: _337  and  _339
REMARK  145  A    between atoms: _339  and  _340
REMARK  146  A    between atoms: _339  and  _342
REMARK  147  A    between atoms: _342  and  _343
REMARK  148  A    between atoms: _348  and  _350
REMARK  149  A    between atoms: _350  and  _351
REMARK  150  A    between atoms: _350  and  _353
REMARK  151  A    between atoms: _353  and  _354
REMARK  152  A    between atoms: _357  and  _359
REMARK  153  A    between atoms: _359  and  _360
REMARK  154  A    between atoms: _359  and  _362
REMARK  155  A    between atoms: _362  and  _363
REMARK  156  A    between atoms: _363  and  _364
REMARK  157  A    between atoms: _369  and  _371
REMARK  158  A    between atoms: _371  and  _372
REMARK  159  A    between atoms: _374  and  _376
REMARK  160  A    between atoms: _376  and  _377
REMARK  161  A    between atoms: _376  and  _379
REMARK  162  A    between atoms: _379  and  _380
REMARK  163  A    between atoms: _386  and  _388
REMARK  164  A    between atoms: _388  and  _389
REMARK  165  A    between atoms: _388  and  _391
REMARK  166  A    between atoms: _391  and  _392
REMARK  167  A    between atoms: _395  and  _397
REMARK  168  A    between atoms: _397  and  _398
REMARK  169  A    between atoms: _401  and  _403
REMARK  170  A    between atoms: _403  and  _404
REMARK  171  A    between atoms: _403  and  _406
REMARK  172  A    between atoms: _406  and  _407
REMARK  173  A    between atoms: _410  and  _412
REMARK  174  A    between atoms: _412  and  _413
REMARK  175  A    between atoms: _412  and  _415
REMARK  176  A    between atoms: _415  and  _416
REMARK  177  A    between atoms: _419  and  _421
REMARK  178  A    between atoms: _421  and  _422
REMARK  179  A    between atoms: _424  and  _426
REMARK  180  A    between atoms: _426  and  _427
REMARK  181  A    between atoms: _426  and  _429
REMARK  182  A    between atoms: _429  and  _430
REMARK  183  A    between atoms: _433  and  _435
REMARK  184  A    between atoms: _435  and  _436
REMARK  185  A    between atoms: _435  and  _438
REMARK  186  A    between atoms: _438  and  _439
REMARK  187  A    between atoms: _442  and  _444
REMARK  188  A    between atoms: _444  and  _445
REMARK  189  A    between atoms: _444  and  _447
REMARK  190  A    between atoms: _447  and  _448
REMARK  191  A    between atoms: _451  and  _453
REMARK  192  A    between atoms: _453  and  _454
REMARK  193  A    between atoms: _453  and  _456
REMARK  194  A    between atoms: _456  and  _457
REMARK  195  A    between atoms: _460  and  _462
REMARK  196  A    between atoms: _462  and  _463
REMARK  197  A    between atoms: _462  and  _465
REMARK  198  A    between atoms: _465  and  _466
REMARK  199  A    between atoms: _471  and  _472
REMARK  200  A    between atoms: _474  and  _476
REMARK  201  A    between atoms: _476  and  _477
REMARK  202  A    between atoms: _476  and  _479
REMARK  203  A    between atoms: _482  and  _484
REMARK  204  A    between atoms: _484  and  _485
REMARK  205  A    between atoms: _487  and  _489
REMARK  206  A    between atoms: _489  and  _490
REMARK  207  A    between atoms: _489  and  _492
REMARK  208  A    between atoms: _492  and  _493
REMARK  209  A    between atoms: _499  and  _501
REMARK  210  A    between atoms: _501  and  _502
REMARK  211  A    between atoms: _504  and  _506
REMARK  212  A    between atoms: _506  and  _507
REMARK  213  A    between atoms: _506  and  _509
REMARK  214  A    between atoms: _509  and  _510
REMARK  215  A    between atoms: _516  and  _518
REMARK  216  A    between atoms: _518  and  _519
REMARK  217  A    between atoms: _521  and  _523
REMARK  218  A    between atoms: _523  and  _524
REMARK  219  A    between atoms: _526  and  _528
REMARK  220  A    between atoms: _528  and  _529
REMARK  221  A    between atoms: _528  and  _531
REMARK  222  A    between atoms: _531  and  _532
REMARK  223  A    between atoms: _532  and  _533
REMARK  224  A    between atoms: _538  and  _540
REMARK  225  A    between atoms: _540  and  _541
REMARK  226  A    between atoms: _543  and  _545
REMARK  227  A    between atoms: _545  and  _546
REMARK  228  A    between atoms: _545  and  _548
REMARK  229  A    between atoms: _548  and  _549
REMARK  230  A    between atoms: _552  and  _554
REMARK  231  A    between atoms: _554  and  _555
REMARK  232  A    between atoms: _557  and  _559
REMARK  233  A    between atoms: _559  and  _560
REMARK  234  A    between atoms: _559  and  _562
REMARK  235  A    between atoms: _562  and  _563
REMARK  236  A    between atoms: _566  and  _568
REMARK  237  A    between atoms: _568  and  _569
REMARK  238  A    between atoms: _568  and  _571
REMARK  239  A    between atoms: _571  and  _572
REMARK  240  A    between atoms: _577  and  _579
REMARK  241  A    between atoms: _579  and  _580
REMARK  242  A    between atoms: _579  and  _582
REMARK  243  A    between atoms: _582  and  _583
REMARK  244  A    between atoms: _586  and  _588
REMARK  245  A    between atoms: _588  and  _589
REMARK  246  A    between atoms: _591  and  _593
REMARK  247  A    between atoms: _593  and  _594
REMARK  248  A    between atoms: _593  and  _596
REMARK  249  A    between atoms: _596  and  _597
REMARK  250  A    between atoms: _600  and  _602
REMARK  251  A    between atoms: _602  and  _603
REMARK  252  A    between atoms: _602  and  _605
REMARK                            x       y       z     vdW  Elec       q    Type
REMARK                         _______ _______ _______ _____ _____    ______ ____
ROOT
ATOM      1  O   HOH     1      -4.701  35.412  17.372  0.00  0.00    +0.000 OA
ENDROOT
TORSDOF 0
REMARK  Name = ../refined-set-2016/3uri/3uri_pocket.pdb
REMARK  252 active torsions:
REMARK  status: ('A' for Active; 'I' for Inactive)
REMARK    1  A    between atoms: _1  and  _3
REMARK    2  A    between atoms: _3  and  _4
REMARK    3  A    between atoms: _3  and  _6
REMARK    4  A    between atoms: _6  and  _7
REMARK    5  A    between atoms: _10  and  _12
REMARK    6  A    between atoms: _12  and  _13
REMARK    7  A    between atoms: _12  and  _15
REMARK    8  A    between atoms: _15  and  _16
REMARK    9  A    between atoms: _19  and  _21
REMARK   10  A    between atoms: _21  and  _22
REMARK   11  A    between atoms: _21  and  _24
REMARK   12  A    between atoms: _24  and  _25
REMARK   13  A    between atoms: _28  and  _30
REMARK   14  A    between atoms: _30  and  _31
REMARK   15  A    between atoms: _30  and  _33
REMARK   16  A    between atoms: _33  and  _34
REMARK   17  A    between atoms: _37  and  _39
REMARK   18  A    between atoms: _39  and  _40
REMARK   19  A    between atoms: _39  and  _42
REMARK   20  A    between atoms: _42  and  _43
REMARK   21  A    between atoms: _46  and  _48
REMARK   22  A    between atoms: _48  and  _49
REMARK   23  A    between atoms: _52  and  _54
REMARK   24  A    between atoms: _54  and  _55
REMARK   25  A    between atoms: _54  and  _57
REMARK   26  A    between atoms: _57  and  _58
REMARK   27  A    between atoms: _63  and  _64
REMARK   28  A    between atoms: _66  and  _68
REMARK   29  A    between atoms: _68  and  _69
REMARK   30  A    between atoms: _68  and  _71
REMARK   31  A    between atoms: _71  and  _72
REMARK   32  A    between atoms: _75  and  _77
REMARK   33  A    between atoms: _77  and  _78
REMARK   34  A    between atoms: _77  and  _80
REMARK   35  A    between atoms: _80  and  _81
REMARK   36  A    between atoms: _84  and  _86
REMARK   37  A    between atoms: _86  and  _87
REMARK   38  A    between atoms: _86  and  _89
REMARK   39  A    between atoms: _89  and  _90
REMARK   40  A    between atoms: _96  and  _98
REMARK   41  A    between atoms: _98  and  _99
REMARK   42  A    between atoms: _98  and  _101
REMARK   43  A    between atoms: _101  and  _102
REMARK   44  A    between atoms: _105  and  _107
REMARK   45  A    between atoms: _107  and  _108
REMARK   46  A    between atoms: _107  and  _110
REMARK   47  A    between atoms: _110  and  _111
REMARK   48  A    between atoms: _114  and  _116
REMARK   49  A    between atoms: _116  and  _117
REMARK   50  A    between atoms: _119  and  _121
REMARK   51  A    between atoms: _121  and  _122
REMARK   52  A    between atoms: _121  and  _124
REMARK   53  A    between atoms: _124  and  _125
REMARK   54  A    between atoms: _127  and  _129
REMARK   55  A    between atoms: _129  and  _130
REMARK   56  A    between atoms: _129  and  _132
REMARK   57  A    between atoms: _132  and  _133
REMARK   58  A    between atoms: _135  and  _137
REMARK   59  A    between atoms: _137  and  _138
REMARK   60  A    between atoms: _137  and  _140
REMARK   61  A    between atoms: _140  and  _141
REMARK   62  A    between atoms: _144  and  _146
REMARK   63  A    between atoms: _146  and  _147
REMARK   64  A    between atoms: _146  and  _149
REMARK   65  A    between atoms: _149  and  _150
REMARK   66  A    between atoms: _160  and  _162
REMARK   67  A    between atoms: _162  and  _163
REMARK   68  A    between atoms: _162  and  _165
REMARK   69  A    between atoms: _165  and  _166
REMARK   70  A    between atoms: _168  and  _170
REMARK   71  A    between atoms: _170  and  _171
REMARK   72  A    between atoms: _170  and  _173
REMARK   73  A    between atoms: _173  and  _174
REMARK   74  A    between atoms: _177  and  _179
REMARK   75  A    between atoms: _179  and  _180
REMARK   76  A    between atoms: _179  and  _182
REMARK   77  A    between atoms: _182  and  _183
REMARK   78  A    between atoms: _185  and  _187
REMARK   79  A    between atoms: _187  and  _188
REMARK   80  A    between atoms: _187  and  _190
REMARK   81  A    between atoms: _190  and  _191
REMARK   82  A    between atoms: _196  and  _197
REMARK   83  A    between atoms: _199  and  _201
REMARK   84  A    between atoms: _201  and  _202
REMARK   85  A    between atoms: _204  and  _206
REMARK   86  A    between atoms: _206  and  _207
REMARK   87  A    between atoms: _206  and  _209
REMARK   88  A    between atoms: _209  and  _210
REMARK   89  A    between atoms: _213  and  _215
REMARK   90  A    between atoms: _215  and  _216
REMARK   91  A    between atoms: _218  and  _220
REMARK   92  A    between atoms: _220  and  _221
REMARK   93  A    between atoms: _220  and  _223
REMARK   94  A    between atoms: _223  and  _224
REMARK   95  A    between atoms: _226  and  _228
REMARK   96  A    between atoms: _228  and  _229
REMARK   97  A    between atoms: _228  and  _231
REMARK   98  A    between atoms: _231  and  _232
REMARK   99  A    between atoms: _234  and  _236
REMARK  100  A    between atoms: _236  and  _237
REMARK  101  A    between atoms: _236  and  _239
REMARK  102  A    between atoms: _239  and  _240
REMARK  103  A    between atoms: _242  and  _244
REMARK  104  A    between atoms: _244  and  _245
REMARK  105  A    between atoms: _244  and  _247
REMARK  106  A    between atoms: _247  and  _248
REMARK  107  A    between atoms: _250  and  _252
REMARK  108  A    between atoms: _252  and  _253
REMARK  109  A    between atoms: _252  and  _255
REMARK  110  A    between atoms: _255  and  _256
REMARK  111  A    between atoms: _262  and  _264
REMARK  112  A    between atoms: _264  and  _265
REMARK  113  A    between atoms: _264  and  _267
REMARK  114  A    between atoms: _267  and  _268
REMARK  115  A    between atoms: _268  and  _269
REMARK  116  A    between atoms: _272  and  _274
REMARK  117  A    between atoms: _274  and  _275
REMARK  118  A    between atoms: _274  and  _277
REMARK  119  A    between atoms: _277  and  _278
REMARK  120  A    between atoms: _281  and  _283
REMARK  121  A    between atoms: _283  and  _284
REMARK  122  A    between atoms: _283  and  _286
REMARK  123  A    between atoms: _286  and  _287
REMARK  124  A    between atoms: _290  and  _292
REMARK  125  A    between atoms: _292  and  _293
REMARK  126  A    between atoms: _292  and  _295
REMARK  127  A    between atoms: _295  and  _296
REMARK  128  A    between atoms: _299  and  _301
REMARK  129  A    between atoms: _301  and  _302
REMARK  130  A    between atoms: _304  and  _306
REMARK  131  A    between atoms: _306  and  _307
REMARK  132  A    between atoms: _306  and  _309
REMARK  133  A    between atoms: _309  and  _310
REMARK  134  A    between atoms: _313  and  _315
REMARK  135  A    between atoms: _315  and  _316
REMARK  136  A    between atoms: _315  and  _318
REMARK  137  A    between atoms: _318  and  _319
REMARK  138  A    between atoms: _322  and  _324
REMARK  139  A    between atoms: _324  and  _325
REMARK  140  A    between atoms: _328  and  _330
REMARK  141  A    between atoms: _330  and  _331
REMARK  142  A    between atoms: _330  and  _333
REMARK  143  A    between atoms: _333  and  _334
REMARK  144  A    between atoms: _337  and  _339
REMARK  145  A    between atoms: _339  and  _340
REMARK  146  A    between atoms: _339  and  _342
REMARK  147  A    between atoms: _342  and  _343
REMARK  148  A    between atoms: _348  and  _350
REMARK  149  A    between atoms: _350  and  _351
REMARK  150  A    between atoms: _350  and  _353
REMARK  151  A    between atoms: _353  and  _354
REMARK  152  A    between atoms: _357  and  _359
REMARK  153  A    between atoms: _359  and  _360
REMARK  154  A    between atoms: _359  and  _362
REMARK  155  A    between atoms: _362  and  _363
REMARK  156  A    between atoms: _363  and  _364
REMARK  157  A    between atoms: _369  and  _371
REMARK  158  A    between atoms: _371  and  _372
REMARK  159  A    between atoms: _374  and  _376
REMARK  160  A    between atoms: _376  and  _377
REMARK  161  A    between atoms: _376  and  _379
REMARK  162  A    between atoms: _379  and  _380
REMARK  163  A    between atoms: _386  and  _388
REMARK  164  A    between atoms: _388  and  _389
REMARK  165  A    between atoms: _388  and  _391
REMARK  166  A    between atoms: _391  and  _392
REMARK  167  A    between atoms: _395  and  _397
REMARK  168  A    between atoms: _397  and  _398
REMARK  169  A    between atoms: _401  and  _403
REMARK  170  A    between atoms: _403  and  _404
REMARK  171  A    between atoms: _403  and  _406
REMARK  172  A    between atoms: _406  and  _407
REMARK  173  A    between atoms: _410  and  _412
REMARK  174  A    between atoms: _412  and  _413
REMARK  175  A    between atoms: _412  and  _415
REMARK  176  A    between atoms: _415  and  _416
REMARK  177  A    between atoms: _419  and  _421
REMARK  178  A    between atoms: _421  and  _422
REMARK  179  A    between atoms: _424  and  _426
REMARK  180  A    between atoms: _426  and  _427
REMARK  181  A    between atoms: _426  and  _429
REMARK  182  A    between atoms: _429  and  _430
REMARK  183  A    between atoms: _433  and  _435
REMARK  184  A    between atoms: _435  and  _436
REMARK  185  A    between atoms: _435  and  _438
REMARK  186  A    between atoms: _438  and  _439
REMARK  187  A    between atoms: _442  and  _444
REMARK  188  A    between atoms: _444  and  _445
REMARK  189  A    between atoms: _444  and  _447
REMARK  190  A    between atoms: _447  and  _448
REMARK  191  A    between atoms: _451  and  _453
REMARK  192  A    between atoms: _453  and  _454
REMARK  193  A    between atoms: _453  and  _456
REMARK  194  A    between atoms: _456  and  _457
REMARK  195  A    between atoms: _460  and  _462
REMARK  196  A    between atoms: _462  and  _463
REMARK  197  A    between atoms: _462  and  _465
REMARK  198  A    between atoms: _465  and  _466
REMARK  199  A    between atoms: _471  and  _472
REMARK  200  A    between atoms: _474  and  _476
REMARK  201  A    between atoms: _476  and  _477
REMARK  202  A    between atoms: _476  and  _479
REMARK  203  A    between atoms: _482  and  _484
REMARK  204  A    between atoms: _484  and  _485
REMARK  205  A    between atoms: _487  and  _489
REMARK  206  A    between atoms: _489  and  _490
REMARK  207  A    between atoms: _489  and  _492
REMARK  208  A    between atoms: _492  and  _493
REMARK  209  A    between atoms: _499  and  _501
REMARK  210  A    between atoms: _501  and  _502
REMARK  211  A    between atoms: _504  and  _506
REMARK  212  A    between atoms: _506  and  _507
REMARK  213  A    between atoms: _506  and  _509
REMARK  214  A    between atoms: _509  and  _510
REMARK  215  A    between atoms: _516  and  _518
REMARK  216  A    between atoms: _518  and  _519
REMARK  217  A    between atoms: _521  and  _523
REMARK  218  A    between atoms: _523  and  _524
REMARK  219  A    between atoms: _526  and  _528
REMARK  220  A    between atoms: _528  and  _529
REMARK  221  A    between atoms: _528  and  _531
REMARK  222  A    between atoms: _531  and  _532
REMARK  223  A    between atoms: _532  and  _533
REMARK  224  A    between atoms: _538  and  _540
REMARK  225  A    between atoms: _540  and  _541
REMARK  226  A    between atoms: _543  and  _545
REMARK  227  A    between atoms: _545  and  _546
REMARK  228  A    between atoms: _545  and  _548
REMARK  229  A    between atoms: _548  and  _549
REMARK  230  A    between atoms: _552  and  _554
REMARK  231  A    between atoms: _554  and  _555
REMARK  232  A    between atoms: _557  and  _559
REMARK  233  A    between atoms: _559  and  _560
REMARK  234  A    between atoms: _559  and  _562
REMARK  235  A    between atoms: _562  and  _563
REMARK  236  A    between atoms: _566  and  _568
REMARK  237  A    between atoms: _568  and  _569
REMARK  238  A    between atoms: _568  and  _571
REMARK  239  A    between atoms: _571  and  _572
REMARK  240  A    between atoms: _577  and  _579
REMARK  241  A    between atoms: _579  and  _580
REMARK  242  A    between atoms: _579  and  _582
REMARK  243  A    between atoms: _582  and  _583
REMARK  244  A    between atoms: _586  and  _588
REMARK  245  A    between atoms: _588  and  _589
REMARK  246  A    between atoms: _591  and  _593
REMARK  247  A    between atoms: _593  and  _594
REMARK  248  A    between atoms: _593  and  _596
REMARK  249  A    between atoms: _596  and  _597
REMARK  250  A    between atoms: _600  and  _602
REMARK  251  A    between atoms: _602  and  _603
REMARK  252  A    between atoms: _602  and  _605
REMARK                            x       y       z     vdW  Elec       q    Type
REMARK                         _______ _______ _______ _____ _____    ______ ____
ROOT
ATOM      1  O   HOH     1       5.105  28.531  31.870  0.00  0.00    +0.000 OA
ENDROOT
TORSDOF 0
REMARK  Name = ../refined-set-2016/3uri/3uri_pocket.pdb
REMARK  252 active torsions:
REMARK  status: ('A' for Active; 'I' for Inactive)
REMARK    1  A    between atoms: _1  and  _3
REMARK    2  A    between atoms: _3  and  _4
REMARK    3  A    between atoms: _3  and  _6
REMARK    4  A    between atoms: _6  and  _7
REMARK    5  A    between atoms: _10  and  _12
REMARK    6  A    between atoms: _12  and  _13
REMARK    7  A    between atoms: _12  and  _15
REMARK    8  A    between atoms: _15  and  _16
REMARK    9  A    between atoms: _19  and  _21
REMARK   10  A    between atoms: _21  and  _22
REMARK   11  A    between atoms: _21  and  _24
REMARK   12  A    between atoms: _24  and  _25
REMARK   13  A    between atoms: _28  and  _30
REMARK   14  A    between atoms: _30  and  _31
REMARK   15  A    between atoms: _30  and  _33
REMARK   16  A    between atoms: _33  and  _34
REMARK   17  A    between atoms: _37  and  _39
REMARK   18  A    between atoms: _39  and  _40
REMARK   19  A    between atoms: _39  and  _42
REMARK   20  A    between atoms: _42  and  _43
REMARK   21  A    between atoms: _46  and  _48
REMARK   22  A    between atoms: _48  and  _49
REMARK   23  A    between atoms: _52  and  _54
REMARK   24  A    between atoms: _54  and  _55
REMARK   25  A    between atoms: _54  and  _57
REMARK   26  A    between atoms: _57  and  _58
REMARK   27  A    between atoms: _63  and  _64
REMARK   28  A    between atoms: _66  and  _68
REMARK   29  A    between atoms: _68  and  _69
REMARK   30  A    between atoms: _68  and  _71
REMARK   31  A    between atoms: _71  and  _72
REMARK   32  A    between atoms: _75  and  _77
REMARK   33  A    between atoms: _77  and  _78
REMARK   34  A    between atoms: _77  and  _80
REMARK   35  A    between atoms: _80  and  _81
REMARK   36  A    between atoms: _84  and  _86
REMARK   37  A    between atoms: _86  and  _87
REMARK   38  A    between atoms: _86  and  _89
REMARK   39  A    between atoms: _89  and  _90
REMARK   40  A    between atoms: _96  and  _98
REMARK   41  A    between atoms: _98  and  _99
REMARK   42  A    between atoms: _98  and  _101
REMARK   43  A    between atoms: _101  and  _102
REMARK   44  A    between atoms: _105  and  _107
REMARK   45  A    between atoms: _107  and  _108
REMARK   46  A    between atoms: _107  and  _110
REMARK   47  A    between atoms: _110  and  _111
REMARK   48  A    between atoms: _114  and  _116
REMARK   49  A    between atoms: _116  and  _117
REMARK   50  A    between atoms: _119  and  _121
REMARK   51  A    between atoms: _121  and  _122
REMARK   52  A    between atoms: _121  and  _124
REMARK   53  A    between atoms: _124  and  _125
REMARK   54  A    between atoms: _127  and  _129
REMARK   55  A    between atoms: _129  and  _130
REMARK   56  A    between atoms: _129  and  _132
REMARK   57  A    between atoms: _132  and  _133
REMARK   58  A    between atoms: _135  and  _137
REMARK   59  A    between atoms: _137  and  _138
REMARK   60  A    between atoms: _137  and  _140
REMARK   61  A    between atoms: _140  and  _141
REMARK   62  A    between atoms: _144  and  _146
REMARK   63  A    between atoms: _146  and  _147
REMARK   64  A    between atoms: _146  and  _149
REMARK   65  A    between atoms: _149  and  _150
REMARK   66  A    between atoms: _160  and  _162
REMARK   67  A    between atoms: _162  and  _163
REMARK   68  A    between atoms: _162  and  _165
REMARK   69  A    between atoms: _165  and  _166
REMARK   70  A    between atoms: _168  and  _170
REMARK   71  A    between atoms: _170  and  _171
REMARK   72  A    between atoms: _170  and  _173
REMARK   73  A    between atoms: _173  and  _174
REMARK   74  A    between atoms: _177  and  _179
REMARK   75  A    between atoms: _179  and  _180
REMARK   76  A    between atoms: _179  and  _182
REMARK   77  A    between atoms: _182  and  _183
REMARK   78  A    between atoms: _185  and  _187
REMARK   79  A    between atoms: _187  and  _188
REMARK   80  A    between atoms: _187  and  _190
REMARK   81  A    between atoms: _190  and  _191
REMARK   82  A    between atoms: _196  and  _197
REMARK   83  A    between atoms: _199  and  _201
REMARK   84  A    between atoms: _201  and  _202
REMARK   85  A    between atoms: _204  and  _206
REMARK   86  A    between atoms: _206  and  _207
REMARK   87  A    between atoms: _206  and  _209
REMARK   88  A    between atoms: _209  and  _210
REMARK   89  A    between atoms: _213  and  _215
REMARK   90  A    between atoms: _215  and  _216
REMARK   91  A    between atoms: _218  and  _220
REMARK   92  A    between atoms: _220  and  _221
REMARK   93  A    between atoms: _220  and  _223
REMARK   94  A    between atoms: _223  and  _224
REMARK   95  A    between atoms: _226  and  _228
REMARK   96  A    between atoms: _228  and  _229
REMARK   97  A    between atoms: _228  and  _231
REMARK   98  A    between atoms: _231  and  _232
REMARK   99  A    between atoms: _234  and  _236
REMARK  100  A    between atoms: _236  and  _237
REMARK  101  A    between atoms: _236  and  _239
REMARK  102  A    between atoms: _239  and  _240
REMARK  103  A    between atoms: _242  and  _244
REMARK  104  A    between atoms: _244  and  _245
REMARK  105  A    between atoms: _244  and  _247
REMARK  106  A    between atoms: _247  and  _248
REMARK  107  A    between atoms: _250  and  _252
REMARK  108  A    between atoms: _252  and  _253
REMARK  109  A    between atoms: _252  and  _255
REMARK  110  A    between atoms: _255  and  _256
REMARK  111  A    between atoms: _262  and  _264
REMARK  112  A    between atoms: _264  and  _265
REMARK  113  A    between atoms: _264  and  _267
REMARK  114  A    between atoms: _267  and  _268
REMARK  115  A    between atoms: _268  and  _269
REMARK  116  A    between atoms: _272  and  _274
REMARK  117  A    between atoms: _274  and  _275
REMARK  118  A    between atoms: _274  and  _277
REMARK  119  A    between atoms: _277  and  _278
REMARK  120  A    between atoms: _281  and  _283
REMARK  121  A    between atoms: _283  and  _284
REMARK  122  A    between atoms: _283  and  _286
REMARK  123  A    between atoms: _286  and  _287
REMARK  124  A    between atoms: _290  and  _292
REMARK  125  A    between atoms: _292  and  _293
REMARK  126  A    between atoms: _292  and  _295
REMARK  127  A    between atoms: _295  and  _296
REMARK  128  A    between atoms: _299  and  _301
REMARK  129  A    between atoms: _301  and  _302
REMARK  130  A    between atoms: _304  and  _306
REMARK  131  A    between atoms: _306  and  _307
REMARK  132  A    between atoms: _306  and  _309
REMARK  133  A    between atoms: _309  and  _310
REMARK  134  A    between atoms: _313  and  _315
REMARK  135  A    between atoms: _315  and  _316
REMARK  136  A    between atoms: _315  and  _318
REMARK  137  A    between atoms: _318  and  _319
REMARK  138  A    between atoms: _322  and  _324
REMARK  139  A    between atoms: _324  and  _325
REMARK  140  A    between atoms: _328  and  _330
REMARK  141  A    between atoms: _330  and  _331
REMARK  142  A    between atoms: _330  and  _333
REMARK  143  A    between atoms: _333  and  _334
REMARK  144  A    between atoms: _337  and  _339
REMARK  145  A    between atoms: _339  and  _340
REMARK  146  A    between atoms: _339  and  _342
REMARK  147  A    between atoms: _342  and  _343
REMARK  148  A    between atoms: _348  and  _350
REMARK  149  A    between atoms: _350  and  _351
REMARK  150  A    between atoms: _350  and  _353
REMARK  151  A    between atoms: _353  and  _354
REMARK  152  A    between atoms: _357  and  _359
REMARK  153  A    between atoms: _359  and  _360
REMARK  154  A    between atoms: _359  and  _362
REMARK  155  A    between atoms: _362  and  _363
REMARK  156  A    between atoms: _363  and  _364
REMARK  157  A    between atoms: _369  and  _371
REMARK  158  A    between atoms: _371  and  _372
REMARK  159  A    between atoms: _374  and  _376
REMARK  160  A    between atoms: _376  and  _377
REMARK  161  A    between atoms: _376  and  _379
REMARK  162  A    between atoms: _379  and  _380
REMARK  163  A    between atoms: _386  and  _388
REMARK  164  A    between atoms: _388  and  _389
REMARK  165  A    between atoms: _388  and  _391
REMARK  166  A    between atoms: _391  and  _392
REMARK  167  A    between atoms: _395  and  _397
REMARK  168  A    between atoms: _397  and  _398
REMARK  169  A    between atoms: _401  and  _403
REMARK  170  A    between atoms: _403  and  _404
REMARK  171  A    between atoms: _403  and  _406
REMARK  172  A    between atoms: _406  and  _407
REMARK  173  A    between atoms: _410  and  _412
REMARK  174  A    between atoms: _412  and  _413
REMARK  175  A    between atoms: _412  and  _415
REMARK  176  A    between atoms: _415  and  _416
REMARK  177  A    between atoms: _419  and  _421
REMARK  178  A    between atoms: _421  and  _422
REMARK  179  A    between atoms: _424  and  _426
REMARK  180  A    between atoms: _426  and  _427
REMARK  181  A    between atoms: _426  and  _429
REMARK  182  A    between atoms: _429  and  _430
REMARK  183  A    between atoms: _433  and  _435
REMARK  184  A    between atoms: _435  and  _436
REMARK  185  A    between atoms: _435  and  _438
REMARK  186  A    between atoms: _438  and  _439
REMARK  187  A    between atoms: _442  and  _444
REMARK  188  A    between atoms: _444  and  _445
REMARK  189  A    between atoms: _444  and  _447
REMARK  190  A    between atoms: _447  and  _448
REMARK  191  A    between atoms: _451  and  _453
REMARK  192  A    between atoms: _453  and  _454
REMARK  193  A    between atoms: _453  and  _456
REMARK  194  A    between atoms: _456  and  _457
REMARK  195  A    between atoms: _460  and  _462
REMARK  196  A    between atoms: _462  and  _463
REMARK  197  A    between atoms: _462  and  _465
REMARK  198  A    between atoms: _465  and  _466
REMARK  199  A    between atoms: _471  and  _472
REMARK  200  A    between atoms: _474  and  _476
REMARK  201  A    between atoms: _476  and  _477
REMARK  202  A    between atoms: _476  and  _479
REMARK  203  A    between atoms: _482  and  _484
REMARK  204  A    between atoms: _484  and  _485
REMARK  205  A    between atoms: _487  and  _489
REMARK  206  A    between atoms: _489  and  _490
REMARK  207  A    between atoms: _489  and  _492
REMARK  208  A    between atoms: _492  and  _493
REMARK  209  A    between atoms: _499  and  _501
REMARK  210  A    between atoms: _501  and  _502
REMARK  211  A    between atoms: _504  and  _506
REMARK  212  A    between atoms: _506  and  _507
REMARK  213  A    between atoms: _506  and  _509
REMARK  214  A    between atoms: _509  and  _510
REMARK  215  A    between atoms: _516  and  _518
REMARK  216  A    between atoms: _518  and  _519
REMARK  217  A    between atoms: _521  and  _523
REMARK  218  A    between atoms: _523  and  _524
REMARK  219  A    between atoms: _526  and  _528
REMARK  220  A    between atoms: _528  and  _529
REMARK  221  A    between atoms: _528  and  _531
REMARK  222  A    between atoms: _531  and  _532
REMARK  223  A    between atoms: _532  and  _533
REMARK  224  A    between atoms: _538  and  _540
REMARK  225  A    between atoms: _540  and  _541
REMARK  226  A    between atoms: _543  and  _545
REMARK  227  A    between atoms: _545  and  _546
REMARK  228  A    between atoms: _545  and  _548
REMARK  229  A    between atoms: _548  and  _549
REMARK  230  A    between atoms: _552  and  _554
REMARK  231  A    between atoms: _554  and  _555
REMARK  232  A    between atoms: _557  and  _559
REMARK  233  A    between atoms: _559  and  _560
REMARK  234  A    between atoms: _559  and  _562
REMARK  235  A    between atoms: _562  and  _563
REMARK  236  A    between atoms: _566  and  _568
REMARK  237  A    between atoms: _568  and  _569
REMARK  238  A    between atoms: _568  and  _571
REMARK  239  A    between atoms: _571  and  _572
REMARK  240  A    between atoms: _577  and  _579
REMARK  241  A    between atoms: _579  and  _580
REMARK  242  A    between atoms: _579  and  _582
REMARK  243  A    between atoms: _582  and  _583
REMARK  244  A    between atoms: _586  and  _588
REMARK  245  A    between atoms: _588  and  _589
REMARK  246  A    between atoms: _591  and  _593
REMARK  247  A    between atoms: _593  and  _594
REMARK  248  A    between atoms: _593  and  _596
REMARK  249  A    between atoms: _596  and  _597
REMARK  250  A    between atoms: _600  and  _602
REMARK  251  A    between atoms: _602  and  _603
REMARK  252  A    between atoms: _602  and  _605
REMARK                            x       y       z     vdW  Elec       q    Type
REMARK                         _______ _______ _______ _____ _____    ______ ____
ROOT
ATOM      1  O   HOH     1      -5.617  39.984   7.299  0.00  0.00    +0.000 OA
ENDROOT
TORSDOF 0
REMARK  Name = ../refined-set-2016/3uri/3uri_pocket.pdb
REMARK  252 active torsions:
REMARK  status: ('A' for Active; 'I' for Inactive)
REMARK    1  A    between atoms: _1  and  _3
REMARK    2  A    between atoms: _3  and  _4
REMARK    3  A    between atoms: _3  and  _6
REMARK    4  A    between atoms: _6  and  _7
REMARK    5  A    between atoms: _10  and  _12
REMARK    6  A    between atoms: _12  and  _13
REMARK    7  A    between atoms: _12  and  _15
REMARK    8  A    between atoms: _15  and  _16
REMARK    9  A    between atoms: _19  and  _21
REMARK   10  A    between atoms: _21  and  _22
REMARK   11  A    between atoms: _21  and  _24
REMARK   12  A    between atoms: _24  and  _25
REMARK   13  A    between atoms: _28  and  _30
REMARK   14  A    between atoms: _30  and  _31
REMARK   15  A    between atoms: _30  and  _33
REMARK   16  A    between atoms: _33  and  _34
REMARK   17  A    between atoms: _37  and  _39
REMARK   18  A    between atoms: _39  and  _40
REMARK   19  A    between atoms: _39  and  _42
REMARK   20  A    between atoms: _42  and  _43
REMARK   21  A    between atoms: _46  and  _48
REMARK   22  A    between atoms: _48  and  _49
REMARK   23  A    between atoms: _52  and  _54
REMARK   24  A    between atoms: _54  and  _55
REMARK   25  A    between atoms: _54  and  _57
REMARK   26  A    between atoms: _57  and  _58
REMARK   27  A    between atoms: _63  and  _64
REMARK   28  A    between atoms: _66  and  _68
REMARK   29  A    between atoms: _68  and  _69
REMARK   30  A    between atoms: _68  and  _71
REMARK   31  A    between atoms: _71  and  _72
REMARK   32  A    between atoms: _75  and  _77
REMARK   33  A    between atoms: _77  and  _78
REMARK   34  A    between atoms: _77  and  _80
REMARK   35  A    between atoms: _80  and  _81
REMARK   36  A    between atoms: _84  and  _86
REMARK   37  A    between atoms: _86  and  _87
REMARK   38  A    between atoms: _86  and  _89
REMARK   39  A    between atoms: _89  and  _90
REMARK   40  A    between atoms: _96  and  _98
REMARK   41  A    between atoms: _98  and  _99
REMARK   42  A    between atoms: _98  and  _101
REMARK   43  A    between atoms: _101  and  _102
REMARK   44  A    between atoms: _105  and  _107
REMARK   45  A    between atoms: _107  and  _108
REMARK   46  A    between atoms: _107  and  _110
REMARK   47  A    between atoms: _110  and  _111
REMARK   48  A    between atoms: _114  and  _116
REMARK   49  A    between atoms: _116  and  _117
REMARK   50  A    between atoms: _119  and  _121
REMARK   51  A    between atoms: _121  and  _122
REMARK   52  A    between atoms: _121  and  _124
REMARK   53  A    between atoms: _124  and  _125
REMARK   54  A    between atoms: _127  and  _129
REMARK   55  A    between atoms: _129  and  _130
REMARK   56  A    between atoms: _129  and  _132
REMARK   57  A    between atoms: _132  and  _133
REMARK   58  A    between atoms: _135  and  _137
REMARK   59  A    between atoms: _137  and  _138
REMARK   60  A    between atoms: _137  and  _140
REMARK   61  A    between atoms: _140  and  _141
REMARK   62  A    between atoms: _144  and  _146
REMARK   63  A    between atoms: _146  and  _147
REMARK   64  A    between atoms: _146  and  _149
REMARK   65  A    between atoms: _149  and  _150
REMARK   66  A    between atoms: _160  and  _162
REMARK   67  A    between atoms: _162  and  _163
REMARK   68  A    between atoms: _162  and  _165
REMARK   69  A    between atoms: _165  and  _166
REMARK   70  A    between atoms: _168  and  _170
REMARK   71  A    between atoms: _170  and  _171
REMARK   72  A    between atoms: _170  and  _173
REMARK   73  A    between atoms: _173  and  _174
REMARK   74  A    between atoms: _177  and  _179
REMARK   75  A    between atoms: _179  and  _180
REMARK   76  A    between atoms: _179  and  _182
REMARK   77  A    between atoms: _182  and  _183
REMARK   78  A    between atoms: _185  and  _187
REMARK   79  A    between atoms: _187  and  _188
REMARK   80  A    between atoms: _187  and  _190
REMARK   81  A    between atoms: _190  and  _191
REMARK   82  A    between atoms: _196  and  _197
REMARK   83  A    between atoms: _199  and  _201
REMARK   84  A    between atoms: _201  and  _202
REMARK   85  A    between atoms: _204  and  _206
REMARK   86  A    between atoms: _206  and  _207
REMARK   87  A    between atoms: _206  and  _209
REMARK   88  A    between atoms: _209  and  _210
REMARK   89  A    between atoms: _213  and  _215
REMARK   90  A    between atoms: _215  and  _216
REMARK   91  A    between atoms: _218  and  _220
REMARK   92  A    between atoms: _220  and  _221
REMARK   93  A    between atoms: _220  and  _223
REMARK   94  A    between atoms: _223  and  _224
REMARK   95  A    between atoms: _226  and  _228
REMARK   96  A    between atoms: _228  and  _229
REMARK   97  A    between atoms: _228  and  _231
REMARK   98  A    between atoms: _231  and  _232
REMARK   99  A    between atoms: _234  and  _236
REMARK  100  A    between atoms: _236  and  _237
REMARK  101  A    between atoms: _236  and  _239
REMARK  102  A    between atoms: _239  and  _240
REMARK  103  A    between atoms: _242  and  _244
REMARK  104  A    between atoms: _244  and  _245
REMARK  105  A    between atoms: _244  and  _247
REMARK  106  A    between atoms: _247  and  _248
REMARK  107  A    between atoms: _250  and  _252
REMARK  108  A    between atoms: _252  and  _253
REMARK  109  A    between atoms: _252  and  _255
REMARK  110  A    between atoms: _255  and  _256
REMARK  111  A    between atoms: _262  and  _264
REMARK  112  A    between atoms: _264  and  _265
REMARK  113  A    between atoms: _264  and  _267
REMARK  114  A    between atoms: _267  and  _268
REMARK  115  A    between atoms: _268  and  _269
REMARK  116  A    between atoms: _272  and  _274
REMARK  117  A    between atoms: _274  and  _275
REMARK  118  A    between atoms: _274  and  _277
REMARK  119  A    between atoms: _277  and  _278
REMARK  120  A    between atoms: _281  and  _283
REMARK  121  A    between atoms: _283  and  _284
REMARK  122  A    between atoms: _283  and  _286
REMARK  123  A    between atoms: _286  and  _287
REMARK  124  A    between atoms: _290  and  _292
REMARK  125  A    between atoms: _292  and  _293
REMARK  126  A    between atoms: _292  and  _295
REMARK  127  A    between atoms: _295  and  _296
REMARK  128  A    between atoms: _299  and  _301
REMARK  129  A    between atoms: _301  and  _302
REMARK  130  A    between atoms: _304  and  _306
REMARK  131  A    between atoms: _306  and  _307
REMARK  132  A    between atoms: _306  and  _309
REMARK  133  A    between atoms: _309  and  _310
REMARK  134  A    between atoms: _313  and  _315
REMARK  135  A    between atoms: _315  and  _316
REMARK  136  A    between atoms: _315  and  _318
REMARK  137  A    between atoms: _318  and  _319
REMARK  138  A    between atoms: _322  and  _324
REMARK  139  A    between atoms: _324  and  _325
REMARK  140  A    between atoms: _328  and  _330
REMARK  141  A    between atoms: _330  and  _331
REMARK  142  A    between atoms: _330  and  _333
REMARK  143  A    between atoms: _333  and  _334
REMARK  144  A    between atoms: _337  and  _339
REMARK  145  A    between atoms: _339  and  _340
REMARK  146  A    between atoms: _339  and  _342
REMARK  147  A    between atoms: _342  and  _343
REMARK  148  A    between atoms: _348  and  _350
REMARK  149  A    between atoms: _350  and  _351
REMARK  150  A    between atoms: _350  and  _353
REMARK  151  A    between atoms: _353  and  _354
REMARK  152  A    between atoms: _357  and  _359
REMARK  153  A    between atoms: _359  and  _360
REMARK  154  A    between atoms: _359  and  _362
REMARK  155  A    between atoms: _362  and  _363
REMARK  156  A    between atoms: _363  and  _364
REMARK  157  A    between atoms: _369  and  _371
REMARK  158  A    between atoms: _371  and  _372
REMARK  159  A    between atoms: _374  and  _376
REMARK  160  A    between atoms: _376  and  _377
REMARK  161  A    between atoms: _376  and  _379
REMARK  162  A    between atoms: _379  and  _380
REMARK  163  A    between atoms: _386  and  _388
REMARK  164  A    between atoms: _388  and  _389
REMARK  165  A    between atoms: _388  and  _391
REMARK  166  A    between atoms: _391  and  _392
REMARK  167  A    between atoms: _395  and  _397
REMARK  168  A    between atoms: _397  and  _398
REMARK  169  A    between atoms: _401  and  _403
REMARK  170  A    between atoms: _403  and  _404
REMARK  171  A    between atoms: _403  and  _406
REMARK  172  A    between atoms: _406  and  _407
REMARK  173  A    between atoms: _410  and  _412
REMARK  174  A    between atoms: _412  and  _413
REMARK  175  A    between atoms: _412  and  _415
REMARK  176  A    between atoms: _415  and  _416
REMARK  177  A    between atoms: _419  and  _421
REMARK  178  A    between atoms: _421  and  _422
REMARK  179  A    between atoms: _424  and  _426
REMARK  180  A    between atoms: _426  and  _427
REMARK  181  A    between atoms: _426  and  _429
REMARK  182  A    between atoms: _429  and  _430
REMARK  183  A    between atoms: _433  and  _435
REMARK  184  A    between atoms: _435  and  _436
REMARK  185  A    between atoms: _435  and  _438
REMARK  186  A    between atoms: _438  and  _439
REMARK  187  A    between atoms: _442  and  _444
REMARK  188  A    between atoms: _444  and  _445
REMARK  189  A    between atoms: _444  and  _447
REMARK  190  A    between atoms: _447  and  _448
REMARK  191  A    between atoms: _451  and  _453
REMARK  192  A    between atoms: _453  and  _454
REMARK  193  A    between atoms: _453  and  _456
REMARK  194  A    between atoms: _456  and  _457
REMARK  195  A    between atoms: _460  and  _462
REMARK  196  A    between atoms: _462  and  _463
REMARK  197  A    between atoms: _462  and  _465
REMARK  198  A    between atoms: _465  and  _466
REMARK  199  A    between atoms: _471  and  _472
REMARK  200  A    between atoms: _474  and  _476
REMARK  201  A    between atoms: _476  and  _477
REMARK  202  A    between atoms: _476  and  _479
REMARK  203  A    between atoms: _482  and  _484
REMARK  204  A    between atoms: _484  and  _485
REMARK  205  A    between atoms: _487  and  _489
REMARK  206  A    between atoms: _489  and  _490
REMARK  207  A    between atoms: _489  and  _492
REMARK  208  A    between atoms: _492  and  _493
REMARK  209  A    between atoms: _499  and  _501
REMARK  210  A    between atoms: _501  and  _502
REMARK  211  A    between atoms: _504  and  _506
REMARK  212  A    between atoms: _506  and  _507
REMARK  213  A    between atoms: _506  and  _509
REMARK  214  A    between atoms: _509  and  _510
REMARK  215  A    between atoms: _516  and  _518
REMARK  216  A    between atoms: _518  and  _519
REMARK  217  A    between atoms: _521  and  _523
REMARK  218  A    between atoms: _523  and  _524
REMARK  219  A    between atoms: _526  and  _528
REMARK  220  A    between atoms: _528  and  _529
REMARK  221  A    between atoms: _528  and  _531
REMARK  222  A    between atoms: _531  and  _532
REMARK  223  A    between atoms: _532  and  _533
REMARK  224  A    between atoms: _538  and  _540
REMARK  225  A    between atoms: _540  and  _541
REMARK  226  A    between atoms: _543  and  _545
REMARK  227  A    between atoms: _545  and  _546
REMARK  228  A    between atoms: _545  and  _548
REMARK  229  A    between atoms: _548  and  _549
REMARK  230  A    between atoms: _552  and  _554
REMARK  231  A    between atoms: _554  and  _555
REMARK  232  A    between atoms: _557  and  _559
REMARK  233  A    between atoms: _559  and  _560
REMARK  234  A    between atoms: _559  and  _562
REMARK  235  A    between atoms: _562  and  _563
REMARK  236  A    between atoms: _566  and  _568
REMARK  237  A    between atoms: _568  and  _569
REMARK  238  A    between atoms: _568  and  _571
REMARK  239  A    between atoms: _571  and  _572
REMARK  240  A    between atoms: _577  and  _579
REMARK  241  A    between atoms: _579  and  _580
REMARK  242  A    between atoms: _579  and  _582
REMARK  243  A    between atoms: _582  and  _583
REMARK  244  A    between atoms: _586  and  _588
REMARK  245  A    between atoms: _588  and  _589
REMARK  246  A    between atoms: _591  and  _593
REMARK  247  A    between atoms: _593  and  _594
REMARK  248  A    between atoms: _593  and  _596
REMARK  249  A    between atoms: _596  and  _597
REMARK  250  A    between atoms: _600  and  _602
REMARK  251  A    between atoms: _602  and  _603
REMARK  252  A    between atoms: _602  and  _605
REMARK                            x       y       z     vdW  Elec       q    Type
REMARK                         _______ _______ _______ _____ _____    ______ ____
ROOT
ATOM      1  O   HOH     1      -4.959  27.651  21.798  0.00  0.00    +0.000 OA
ENDROOT
TORSDOF 0
REMARK  Name = ../refined-set-2016/3uri/3uri_pocket.pdb
REMARK  252 active torsions:
REMARK  status: ('A' for Active; 'I' for Inactive)
REMARK    1  A    between atoms: _1  and  _3
REMARK    2  A    between atoms: _3  and  _4
REMARK    3  A    between atoms: _3  and  _6
REMARK    4  A    between atoms: _6  and  _7
REMARK    5  A    between atoms: _10  and  _12
REMARK    6  A    between atoms: _12  and  _13
REMARK    7  A    between atoms: _12  and  _15
REMARK    8  A    between atoms: _15  and  _16
REMARK    9  A    between atoms: _19  and  _21
REMARK   10  A    between atoms: _21  and  _22
REMARK   11  A    between atoms: _21  and  _24
REMARK   12  A    between atoms: _24  and  _25
REMARK   13  A    between atoms: _28  and  _30
REMARK   14  A    between atoms: _30  and  _31
REMARK   15  A    between atoms: _30  and  _33
REMARK   16  A    between atoms: _33  and  _34
REMARK   17  A    between atoms: _37  and  _39
REMARK   18  A    between atoms: _39  and  _40
REMARK   19  A    between atoms: _39  and  _42
REMARK   20  A    between atoms: _42  and  _43
REMARK   21  A    between atoms: _46  and  _48
REMARK   22  A    between atoms: _48  and  _49
REMARK   23  A    between atoms: _52  and  _54
REMARK   24  A    between atoms: _54  and  _55
REMARK   25  A    between atoms: _54  and  _57
REMARK   26  A    between atoms: _57  and  _58
REMARK   27  A    between atoms: _63  and  _64
REMARK   28  A    between atoms: _66  and  _68
REMARK   29  A    between atoms: _68  and  _69
REMARK   30  A    between atoms: _68  and  _71
REMARK   31  A    between atoms: _71  and  _72
REMARK   32  A    between atoms: _75  and  _77
REMARK   33  A    between atoms: _77  and  _78
REMARK   34  A    between atoms: _77  and  _80
REMARK   35  A    between atoms: _80  and  _81
REMARK   36  A    between atoms: _84  and  _86
REMARK   37  A    between atoms: _86  and  _87
REMARK   38  A    between atoms: _86  and  _89
REMARK   39  A    between atoms: _89  and  _90
REMARK   40  A    between atoms: _96  and  _98
REMARK   41  A    between atoms: _98  and  _99
REMARK   42  A    between atoms: _98  and  _101
REMARK   43  A    between atoms: _101  and  _102
REMARK   44  A    between atoms: _105  and  _107
REMARK   45  A    between atoms: _107  and  _108
REMARK   46  A    between atoms: _107  and  _110
REMARK   47  A    between atoms: _110  and  _111
REMARK   48  A    between atoms: _114  and  _116
REMARK   49  A    between atoms: _116  and  _117
REMARK   50  A    between atoms: _119  and  _121
REMARK   51  A    between atoms: _121  and  _122
REMARK   52  A    between atoms: _121  and  _124
REMARK   53  A    between atoms: _124  and  _125
REMARK   54  A    between atoms: _127  and  _129
REMARK   55  A    between atoms: _129  and  _130
REMARK   56  A    between atoms: _129  and  _132
REMARK   57  A    between atoms: _132  and  _133
REMARK   58  A    between atoms: _135  and  _137
REMARK   59  A    between atoms: _137  and  _138
REMARK   60  A    between atoms: _137  and  _140
REMARK   61  A    between atoms: _140  and  _141
REMARK   62  A    between atoms: _144  and  _146
REMARK   63  A    between atoms: _146  and  _147
REMARK   64  A    between atoms: _146  and  _149
REMARK   65  A    between atoms: _149  and  _150
REMARK   66  A    between atoms: _160  and  _162
REMARK   67  A    between atoms: _162  and  _163
REMARK   68  A    between atoms: _162  and  _165
REMARK   69  A    between atoms: _165  and  _166
REMARK   70  A    between atoms: _168  and  _170
REMARK   71  A    between atoms: _170  and  _171
REMARK   72  A    between atoms: _170  and  _173
REMARK   73  A    between atoms: _173  and  _174
REMARK   74  A    between atoms: _177  and  _179
REMARK   75  A    between atoms: _179  and  _180
REMARK   76  A    between atoms: _179  and  _182
REMARK   77  A    between atoms: _182  and  _183
REMARK   78  A    between atoms: _185  and  _187
REMARK   79  A    between atoms: _187  and  _188
REMARK   80  A    between atoms: _187  and  _190
REMARK   81  A    between atoms: _190  and  _191
REMARK   82  A    between atoms: _196  and  _197
REMARK   83  A    between atoms: _199  and  _201
REMARK   84  A    between atoms: _201  and  _202
REMARK   85  A    between atoms: _204  and  _206
REMARK   86  A    between atoms: _206  and  _207
REMARK   87  A    between atoms: _206  and  _209
REMARK   88  A    between atoms: _209  and  _210
REMARK   89  A    between atoms: _213  and  _215
REMARK   90  A    between atoms: _215  and  _216
REMARK   91  A    between atoms: _218  and  _220
REMARK   92  A    between atoms: _220  and  _221
REMARK   93  A    between atoms: _220  and  _223
REMARK   94  A    between atoms: _223  and  _224
REMARK   95  A    between atoms: _226  and  _228
REMARK   96  A    between atoms: _228  and  _229
REMARK   97  A    between atoms: _228  and  _231
REMARK   98  A    between atoms: _231  and  _232
REMARK   99  A    between atoms: _234  and  _236
REMARK  100  A    between atoms: _236  and  _237
REMARK  101  A    between atoms: _236  and  _239
REMARK  102  A    between atoms: _239  and  _240
REMARK  103  A    between atoms: _242  and  _244
REMARK  104  A    between atoms: _244  and  _245
REMARK  105  A    between atoms: _244  and  _247
REMARK  106  A    between atoms: _247  and  _248
REMARK  107  A    between atoms: _250  and  _252
REMARK  108  A    between atoms: _252  and  _253
REMARK  109  A    between atoms: _252  and  _255
REMARK  110  A    between atoms: _255  and  _256
REMARK  111  A    between atoms: _262  and  _264
REMARK  112  A    between atoms: _264  and  _265
REMARK  113  A    between atoms: _264  and  _267
REMARK  114  A    between atoms: _267  and  _268
REMARK  115  A    between atoms: _268  and  _269
REMARK  116  A    between atoms: _272  and  _274
REMARK  117  A    between atoms: _274  and  _275
REMARK  118  A    between atoms: _274  and  _277
REMARK  119  A    between atoms: _277  and  _278
REMARK  120  A    between atoms: _281  and  _283
REMARK  121  A    between atoms: _283  and  _284
REMARK  122  A    between atoms: _283  and  _286
REMARK  123  A    between atoms: _286  and  _287
REMARK  124  A    between atoms: _290  and  _292
REMARK  125  A    between atoms: _292  and  _293
REMARK  126  A    between atoms: _292  and  _295
REMARK  127  A    between atoms: _295  and  _296
REMARK  128  A    between atoms: _299  and  _301
REMARK  129  A    between atoms: _301  and  _302
REMARK  130  A    between atoms: _304  and  _306
REMARK  131  A    between atoms: _306  and  _307
REMARK  132  A    between atoms: _306  and  _309
REMARK  133  A    between atoms: _309  and  _310
REMARK  134  A    between atoms: _313  and  _315
REMARK  135  A    between atoms: _315  and  _316
REMARK  136  A    between atoms: _315  and  _318
REMARK  137  A    between atoms: _318  and  _319
REMARK  138  A    between atoms: _322  and  _324
REMARK  139  A    between atoms: _324  and  _325
REMARK  140  A    between atoms: _328  and  _330
REMARK  141  A    between atoms: _330  and  _331
REMARK  142  A    between atoms: _330  and  _333
REMARK  143  A    between atoms: _333  and  _334
REMARK  144  A    between atoms: _337  and  _339
REMARK  145  A    between atoms: _339  and  _340
REMARK  146  A    between atoms: _339  and  _342
REMARK  147  A    between atoms: _342  and  _343
REMARK  148  A    between atoms: _348  and  _350
REMARK  149  A    between atoms: _350  and  _351
REMARK  150  A    between atoms: _350  and  _353
REMARK  151  A    between atoms: _353  and  _354
REMARK  152  A    between atoms: _357  and  _359
REMARK  153  A    between atoms: _359  and  _360
REMARK  154  A    between atoms: _359  and  _362
REMARK  155  A    between atoms: _362  and  _363
REMARK  156  A    between atoms: _363  and  _364
REMARK  157  A    between atoms: _369  and  _371
REMARK  158  A    between atoms: _371  and  _372
REMARK  159  A    between atoms: _374  and  _376
REMARK  160  A    between atoms: _376  and  _377
REMARK  161  A    between atoms: _376  and  _379
REMARK  162  A    between atoms: _379  and  _380
REMARK  163  A    between atoms: _386  and  _388
REMARK  164  A    between atoms: _388  and  _389
REMARK  165  A    between atoms: _388  and  _391
REMARK  166  A    between atoms: _391  and  _392
REMARK  167  A    between atoms: _395  and  _397
REMARK  168  A    between atoms: _397  and  _398
REMARK  169  A    between atoms: _401  and  _403
REMARK  170  A    between atoms: _403  and  _404
REMARK  171  A    between atoms: _403  and  _406
REMARK  172  A    between atoms: _406  and  _407
REMARK  173  A    between atoms: _410  and  _412
REMARK  174  A    between atoms: _412  and  _413
REMARK  175  A    between atoms: _412  and  _415
REMARK  176  A    between atoms: _415  and  _416
REMARK  177  A    between atoms: _419  and  _421
REMARK  178  A    between atoms: _421  and  _422
REMARK  179  A    between atoms: _424  and  _426
REMARK  180  A    between atoms: _426  and  _427
REMARK  181  A    between atoms: _426  and  _429
REMARK  182  A    between atoms: _429  and  _430
REMARK  183  A    between atoms: _433  and  _435
REMARK  184  A    between atoms: _435  and  _436
REMARK  185  A    between atoms: _435  and  _438
REMARK  186  A    between atoms: _438  and  _439
REMARK  187  A    between atoms: _442  and  _444
REMARK  188  A    between atoms: _444  and  _445
REMARK  189  A    between atoms: _444  and  _447
REMARK  190  A    between atoms: _447  and  _448
REMARK  191  A    between atoms: _451  and  _453
REMARK  192  A    between atoms: _453  and  _454
REMARK  193  A    between atoms: _453  and  _456
REMARK  194  A    between atoms: _456  and  _457
REMARK  195  A    between atoms: _460  and  _462
REMARK  196  A    between atoms: _462  and  _463
REMARK  197  A    between atoms: _462  and  _465
REMARK  198  A    between atoms: _465  and  _466
REMARK  199  A    between atoms: _471  and  _472
REMARK  200  A    between atoms: _474  and  _476
REMARK  201  A    between atoms: _476  and  _477
REMARK  202  A    between atoms: _476  and  _479
REMARK  203  A    between atoms: _482  and  _484
REMARK  204  A    between atoms: _484  and  _485
REMARK  205  A    between atoms: _487  and  _489
REMARK  206  A    between atoms: _489  and  _490
REMARK  207  A    between atoms: _489  and  _492
REMARK  208  A    between atoms: _492  and  _493
REMARK  209  A    between atoms: _499  and  _501
REMARK  210  A    between atoms: _501  and  _502
REMARK  211  A    between atoms: _504  and  _506
REMARK  212  A    between atoms: _506  and  _507
REMARK  213  A    between atoms: _506  and  _509
REMARK  214  A    between atoms: _509  and  _510
REMARK  215  A    between atoms: _516  and  _518
REMARK  216  A    between atoms: _518  and  _519
REMARK  217  A    between atoms: _521  and  _523
REMARK  218  A    between atoms: _523  and  _524
REMARK  219  A    between atoms: _526  and  _528
REMARK  220  A    between atoms: _528  and  _529
REMARK  221  A    between atoms: _528  and  _531
REMARK  222  A    between atoms: _531  and  _532
REMARK  223  A    between atoms: _532  and  _533
REMARK  224  A    between atoms: _538  and  _540
REMARK  225  A    between atoms: _540  and  _541
REMARK  226  A    between atoms: _543  and  _545
REMARK  227  A    between atoms: _545  and  _546
REMARK  228  A    between atoms: _545  and  _548
REMARK  229  A    between atoms: _548  and  _549
REMARK  230  A    between atoms: _552  and  _554
REMARK  231  A    between atoms: _554  and  _555
REMARK  232  A    between atoms: _557  and  _559
REMARK  233  A    between atoms: _559  and  _560
REMARK  234  A    between atoms: _559  and  _562
REMARK  235  A    between atoms: _562  and  _563
REMARK  236  A    between atoms: _566  and  _568
REMARK  237  A    between atoms: _568  and  _569
REMARK  238  A    between atoms: _568  and  _571
REMARK  239  A    between atoms: _571  and  _572
REMARK  240  A    between atoms: _577  and  _579
REMARK  241  A    between atoms: _579  and  _580
REMARK  242  A    between atoms: _579  and  _582
REMARK  243  A    between atoms: _582  and  _583
REMARK  244  A    between atoms: _586  and  _588
REMARK  245  A    between atoms: _588  and  _589
REMARK  246  A    between atoms: _591  and  _593
REMARK  247  A    between atoms: _593  and  _594
REMARK  248  A    between atoms: _593  and  _596
REMARK  249  A    between atoms: _596  and  _597
REMARK  250  A    between atoms: _600  and  _602
REMARK  251  A    between atoms: _602  and  _603
REMARK  252  A    between atoms: _602  and  _605
REMARK                            x       y       z     vdW  Elec       q    Type
REMARK                         _______ _______ _______ _____ _____    ______ ____
ROOT
ATOM      1  O   HOH     1       0.594  19.736  26.249  0.00  0.00    +0.000 OA
ENDROOT
TORSDOF 0
REMARK  Name = ../refined-set-2016/3uri/3uri_pocket.pdb
REMARK  252 active torsions:
REMARK  status: ('A' for Active; 'I' for Inactive)
REMARK    1  A    between atoms: _1  and  _3
REMARK    2  A    between atoms: _3  and  _4
REMARK    3  A    between atoms: _3  and  _6
REMARK    4  A    between atoms: _6  and  _7
REMARK    5  A    between atoms: _10  and  _12
REMARK    6  A    between atoms: _12  and  _13
REMARK    7  A    between atoms: _12  and  _15
REMARK    8  A    between atoms: _15  and  _16
REMARK    9  A    between atoms: _19  and  _21
REMARK   10  A    between atoms: _21  and  _22
REMARK   11  A    between atoms: _21  and  _24
REMARK   12  A    between atoms: _24  and  _25
REMARK   13  A    between atoms: _28  and  _30
REMARK   14  A    between atoms: _30  and  _31
REMARK   15  A    between atoms: _30  and  _33
REMARK   16  A    between atoms: _33  and  _34
REMARK   17  A    between atoms: _37  and  _39
REMARK   18  A    between atoms: _39  and  _40
REMARK   19  A    between atoms: _39  and  _42
REMARK   20  A    between atoms: _42  and  _43
REMARK   21  A    between atoms: _46  and  _48
REMARK   22  A    between atoms: _48  and  _49
REMARK   23  A    between atoms: _52  and  _54
REMARK   24  A    between atoms: _54  and  _55
REMARK   25  A    between atoms: _54  and  _57
REMARK   26  A    between atoms: _57  and  _58
REMARK   27  A    between atoms: _63  and  _64
REMARK   28  A    between atoms: _66  and  _68
REMARK   29  A    between atoms: _68  and  _69
REMARK   30  A    between atoms: _68  and  _71
REMARK   31  A    between atoms: _71  and  _72
REMARK   32  A    between atoms: _75  and  _77
REMARK   33  A    between atoms: _77  and  _78
REMARK   34  A    between atoms: _77  and  _80
REMARK   35  A    between atoms: _80  and  _81
REMARK   36  A    between atoms: _84  and  _86
REMARK   37  A    between atoms: _86  and  _87
REMARK   38  A    between atoms: _86  and  _89
REMARK   39  A    between atoms: _89  and  _90
REMARK   40  A    between atoms: _96  and  _98
REMARK   41  A    between atoms: _98  and  _99
REMARK   42  A    between atoms: _98  and  _101
REMARK   43  A    between atoms: _101  and  _102
REMARK   44  A    between atoms: _105  and  _107
REMARK   45  A    between atoms: _107  and  _108
REMARK   46  A    between atoms: _107  and  _110
REMARK   47  A    between atoms: _110  and  _111
REMARK   48  A    between atoms: _114  and  _116
REMARK   49  A    between atoms: _116  and  _117
REMARK   50  A    between atoms: _119  and  _121
REMARK   51  A    between atoms: _121  and  _122
REMARK   52  A    between atoms: _121  and  _124
REMARK   53  A    between atoms: _124  and  _125
REMARK   54  A    between atoms: _127  and  _129
REMARK   55  A    between atoms: _129  and  _130
REMARK   56  A    between atoms: _129  and  _132
REMARK   57  A    between atoms: _132  and  _133
REMARK   58  A    between atoms: _135  and  _137
REMARK   59  A    between atoms: _137  and  _138
REMARK   60  A    between atoms: _137  and  _140
REMARK   61  A    between atoms: _140  and  _141
REMARK   62  A    between atoms: _144  and  _146
REMARK   63  A    between atoms: _146  and  _147
REMARK   64  A    between atoms: _146  and  _149
REMARK   65  A    between atoms: _149  and  _150
REMARK   66  A    between atoms: _160  and  _162
REMARK   67  A    between atoms: _162  and  _163
REMARK   68  A    between atoms: _162  and  _165
REMARK   69  A    between atoms: _165  and  _166
REMARK   70  A    between atoms: _168  and  _170
REMARK   71  A    between atoms: _170  and  _171
REMARK   72  A    between atoms: _170  and  _173
REMARK   73  A    between atoms: _173  and  _174
REMARK   74  A    between atoms: _177  and  _179
REMARK   75  A    between atoms: _179  and  _180
REMARK   76  A    between atoms: _179  and  _182
REMARK   77  A    between atoms: _182  and  _183
REMARK   78  A    between atoms: _185  and  _187
REMARK   79  A    between atoms: _187  and  _188
REMARK   80  A    between atoms: _187  and  _190
REMARK   81  A    between atoms: _190  and  _191
REMARK   82  A    between atoms: _196  and  _197
REMARK   83  A    between atoms: _199  and  _201
REMARK   84  A    between atoms: _201  and  _202
REMARK   85  A    between atoms: _204  and  _206
REMARK   86  A    between atoms: _206  and  _207
REMARK   87  A    between atoms: _206  and  _209
REMARK   88  A    between atoms: _209  and  _210
REMARK   89  A    between atoms: _213  and  _215
REMARK   90  A    between atoms: _215  and  _216
REMARK   91  A    between atoms: _218  and  _220
REMARK   92  A    between atoms: _220  and  _221
REMARK   93  A    between atoms: _220  and  _223
REMARK   94  A    between atoms: _223  and  _224
REMARK   95  A    between atoms: _226  and  _228
REMARK   96  A    between atoms: _228  and  _229
REMARK   97  A    between atoms: _228  and  _231
REMARK   98  A    between atoms: _231  and  _232
REMARK   99  A    between atoms: _234  and  _236
REMARK  100  A    between atoms: _236  and  _237
REMARK  101  A    between atoms: _236  and  _239
REMARK  102  A    between atoms: _239  and  _240
REMARK  103  A    between atoms: _242  and  _244
REMARK  104  A    between atoms: _244  and  _245
REMARK  105  A    between atoms: _244  and  _247
REMARK  106  A    between atoms: _247  and  _248
REMARK  107  A    between atoms: _250  and  _252
REMARK  108  A    between atoms: _252  and  _253
REMARK  109  A    between atoms: _252  and  _255
REMARK  110  A    between atoms: _255  and  _256
REMARK  111  A    between atoms: _262  and  _264
REMARK  112  A    between atoms: _264  and  _265
REMARK  113  A    between atoms: _264  and  _267
REMARK  114  A    between atoms: _267  and  _268
REMARK  115  A    between atoms: _268  and  _269
REMARK  116  A    between atoms: _272  and  _274
REMARK  117  A    between atoms: _274  and  _275
REMARK  118  A    between atoms: _274  and  _277
REMARK  119  A    between atoms: _277  and  _278
REMARK  120  A    between atoms: _281  and  _283
REMARK  121  A    between atoms: _283  and  _284
REMARK  122  A    between atoms: _283  and  _286
REMARK  123  A    between atoms: _286  and  _287
REMARK  124  A    between atoms: _290  and  _292
REMARK  125  A    between atoms: _292  and  _293
REMARK  126  A    between atoms: _292  and  _295
REMARK  127  A    between atoms: _295  and  _296
REMARK  128  A    between atoms: _299  and  _301
REMARK  129  A    between atoms: _301  and  _302
REMARK  130  A    between atoms: _304  and  _306
REMARK  131  A    between atoms: _306  and  _307
REMARK  132  A    between atoms: _306  and  _309
REMARK  133  A    between atoms: _309  and  _310
REMARK  134  A    between atoms: _313  and  _315
REMARK  135  A    between atoms: _315  and  _316
REMARK  136  A    between atoms: _315  and  _318
REMARK  137  A    between atoms: _318  and  _319
REMARK  138  A    between atoms: _322  and  _324
REMARK  139  A    between atoms: _324  and  _325
REMARK  140  A    between atoms: _328  and  _330
REMARK  141  A    between atoms: _330  and  _331
REMARK  142  A    between atoms: _330  and  _333
REMARK  143  A    between atoms: _333  and  _334
REMARK  144  A    between atoms: _337  and  _339
REMARK  145  A    between atoms: _339  and  _340
REMARK  146  A    between atoms: _339  and  _342
REMARK  147  A    between atoms: _342  and  _343
REMARK  148  A    between atoms: _348  and  _350
REMARK  149  A    between atoms: _350  and  _351
REMARK  150  A    between atoms: _350  and  _353
REMARK  151  A    between atoms: _353  and  _354
REMARK  152  A    between atoms: _357  and  _359
REMARK  153  A    between atoms: _359  and  _360
REMARK  154  A    between atoms: _359  and  _362
REMARK  155  A    between atoms: _362  and  _363
REMARK  156  A    between atoms: _363  and  _364
REMARK  157  A    between atoms: _369  and  _371
REMARK  158  A    between atoms: _371  and  _372
REMARK  159  A    between atoms: _374  and  _376
REMARK  160  A    between atoms: _376  and  _377
REMARK  161  A    between atoms: _376  and  _379
REMARK  162  A    between atoms: _379  and  _380
REMARK  163  A    between atoms: _386  and  _388
REMARK  164  A    between atoms: _388  and  _389
REMARK  165  A    between atoms: _388  and  _391
REMARK  166  A    between atoms: _391  and  _392
REMARK  167  A    between atoms: _395  and  _397
REMARK  168  A    between atoms: _397  and  _398
REMARK  169  A    between atoms: _401  and  _403
REMARK  170  A    between atoms: _403  and  _404
REMARK  171  A    between atoms: _403  and  _406
REMARK  172  A    between atoms: _406  and  _407
REMARK  173  A    between atoms: _410  and  _412
REMARK  174  A    between atoms: _412  and  _413
REMARK  175  A    between atoms: _412  and  _415
REMARK  176  A    between atoms: _415  and  _416
REMARK  177  A    between atoms: _419  and  _421
REMARK  178  A    between atoms: _421  and  _422
REMARK  179  A    between atoms: _424  and  _426
REMARK  180  A    between atoms: _426  and  _427
REMARK  181  A    between atoms: _426  and  _429
REMARK  182  A    between atoms: _429  and  _430
REMARK  183  A    between atoms: _433  and  _435
REMARK  184  A    between atoms: _435  and  _436
REMARK  185  A    between atoms: _435  and  _438
REMARK  186  A    between atoms: _438  and  _439
REMARK  187  A    between atoms: _442  and  _444
REMARK  188  A    between atoms: _444  and  _445
REMARK  189  A    between atoms: _444  and  _447
REMARK  190  A    between atoms: _447  and  _448
REMARK  191  A    between atoms: _451  and  _453
REMARK  192  A    between atoms: _453  and  _454
REMARK  193  A    between atoms: _453  and  _456
REMARK  194  A    between atoms: _456  and  _457
REMARK  195  A    between atoms: _460  and  _462
REMARK  196  A    between atoms: _462  and  _463
REMARK  197  A    between atoms: _462  and  _465
REMARK  198  A    between atoms: _465  and  _466
REMARK  199  A    between atoms: _471  and  _472
REMARK  200  A    between atoms: _474  and  _476
REMARK  201  A    between atoms: _476  and  _477
REMARK  202  A    between atoms: _476  and  _479
REMARK  203  A    between atoms: _482  and  _484
REMARK  204  A    between atoms: _484  and  _485
REMARK  205  A    between atoms: _487  and  _489
REMARK  206  A    between atoms: _489  and  _490
REMARK  207  A    between atoms: _489  and  _492
REMARK  208  A    between atoms: _492  and  _493
REMARK  209  A    between atoms: _499  and  _501
REMARK  210  A    between atoms: _501  and  _502
REMARK  211  A    between atoms: _504  and  _506
REMARK  212  A    between atoms: _506  and  _507
REMARK  213  A    between atoms: _506  and  _509
REMARK  214  A    between atoms: _509  and  _510
REMARK  215  A    between atoms: _516  and  _518
REMARK  216  A    between atoms: _518  and  _519
REMARK  217  A    between atoms: _521  and  _523
REMARK  218  A    between atoms: _523  and  _524
REMARK  219  A    between atoms: _526  and  _528
REMARK  220  A    between atoms: _528  and  _529
REMARK  221  A    between atoms: _528  and  _531
REMARK  222  A    between atoms: _531  and  _532
REMARK  223  A    between atoms: _532  and  _533
REMARK  224  A    between atoms: _538  and  _540
REMARK  225  A    between atoms: _540  and  _541
REMARK  226  A    between atoms: _543  and  _545
REMARK  227  A    between atoms: _545  and  _546
REMARK  228  A    between atoms: _545  and  _548
REMARK  229  A    between atoms: _548  and  _549
REMARK  230  A    between atoms: _552  and  _554
REMARK  231  A    between atoms: _554  and  _555
REMARK  232  A    between atoms: _557  and  _559
REMARK  233  A    between atoms: _559  and  _560
REMARK  234  A    between atoms: _559  and  _562
REMARK  235  A    between atoms: _562  and  _563
REMARK  236  A    between atoms: _566  and  _568
REMARK  237  A    between atoms: _568  and  _569
REMARK  238  A    between atoms: _568  and  _571
REMARK  239  A    between atoms: _571  and  _572
REMARK  240  A    between atoms: _577  and  _579
REMARK  241  A    between atoms: _579  and  _580
REMARK  242  A    between atoms: _579  and  _582
REMARK  243  A    between atoms: _582  and  _583
REMARK  244  A    between atoms: _586  and  _588
REMARK  245  A    between atoms: _588  and  _589
REMARK  246  A    between atoms: _591  and  _593
REMARK  247  A    between atoms: _593  and  _594
REMARK  248  A    between atoms: _593  and  _596
REMARK  249  A    between atoms: _596  and  _597
REMARK  250  A    between atoms: _600  and  _602
REMARK  251  A    between atoms: _602  and  _603
REMARK  252  A    between atoms: _602  and  _605
REMARK                            x       y       z     vdW  Elec       q    Type
REMARK                         _______ _______ _______ _____ _____    ______ ____
ROOT
ATOM      1  O   HOH     1      -6.442  35.571  20.272  0.00  0.00    +0.000 OA
ENDROOT
TORSDOF 0
REMARK  Name = ../refined-set-2016/3uri/3uri_pocket.pdb
REMARK  252 active torsions:
REMARK  status: ('A' for Active; 'I' for Inactive)
REMARK    1  A    between atoms: _1  and  _3
REMARK    2  A    between atoms: _3  and  _4
REMARK    3  A    between atoms: _3  and  _6
REMARK    4  A    between atoms: _6  and  _7
REMARK    5  A    between atoms: _10  and  _12
REMARK    6  A    between atoms: _12  and  _13
REMARK    7  A    between atoms: _12  and  _15
REMARK    8  A    between atoms: _15  and  _16
REMARK    9  A    between atoms: _19  and  _21
REMARK   10  A    between atoms: _21  and  _22
REMARK   11  A    between atoms: _21  and  _24
REMARK   12  A    between atoms: _24  and  _25
REMARK   13  A    between atoms: _28  and  _30
REMARK   14  A    between atoms: _30  and  _31
REMARK   15  A    between atoms: _30  and  _33
REMARK   16  A    between atoms: _33  and  _34
REMARK   17  A    between atoms: _37  and  _39
REMARK   18  A    between atoms: _39  and  _40
REMARK   19  A    between atoms: _39  and  _42
REMARK   20  A    between atoms: _42  and  _43
REMARK   21  A    between atoms: _46  and  _48
REMARK   22  A    between atoms: _48  and  _49
REMARK   23  A    between atoms: _52  and  _54
REMARK   24  A    between atoms: _54  and  _55
REMARK   25  A    between atoms: _54  and  _57
REMARK   26  A    between atoms: _57  and  _58
REMARK   27  A    between atoms: _63  and  _64
REMARK   28  A    between atoms: _66  and  _68
REMARK   29  A    between atoms: _68  and  _69
REMARK   30  A    between atoms: _68  and  _71
REMARK   31  A    between atoms: _71  and  _72
REMARK   32  A    between atoms: _75  and  _77
REMARK   33  A    between atoms: _77  and  _78
REMARK   34  A    between atoms: _77  and  _80
REMARK   35  A    between atoms: _80  and  _81
REMARK   36  A    between atoms: _84  and  _86
REMARK   37  A    between atoms: _86  and  _87
REMARK   38  A    between atoms: _86  and  _89
REMARK   39  A    between atoms: _89  and  _90
REMARK   40  A    between atoms: _96  and  _98
REMARK   41  A    between atoms: _98  and  _99
REMARK   42  A    between atoms: _98  and  _101
REMARK   43  A    between atoms: _101  and  _102
REMARK   44  A    between atoms: _105  and  _107
REMARK   45  A    between atoms: _107  and  _108
REMARK   46  A    between atoms: _107  and  _110
REMARK   47  A    between atoms: _110  and  _111
REMARK   48  A    between atoms: _114  and  _116
REMARK   49  A    between atoms: _116  and  _117
REMARK   50  A    between atoms: _119  and  _121
REMARK   51  A    between atoms: _121  and  _122
REMARK   52  A    between atoms: _121  and  _124
REMARK   53  A    between atoms: _124  and  _125
REMARK   54  A    between atoms: _127  and  _129
REMARK   55  A    between atoms: _129  and  _130
REMARK   56  A    between atoms: _129  and  _132
REMARK   57  A    between atoms: _132  and  _133
REMARK   58  A    between atoms: _135  and  _137
REMARK   59  A    between atoms: _137  and  _138
REMARK   60  A    between atoms: _137  and  _140
REMARK   61  A    between atoms: _140  and  _141
REMARK   62  A    between atoms: _144  and  _146
REMARK   63  A    between atoms: _146  and  _147
REMARK   64  A    between atoms: _146  and  _149
REMARK   65  A    between atoms: _149  and  _150
REMARK   66  A    between atoms: _160  and  _162
REMARK   67  A    between atoms: _162  and  _163
REMARK   68  A    between atoms: _162  and  _165
REMARK   69  A    between atoms: _165  and  _166
REMARK   70  A    between atoms: _168  and  _170
REMARK   71  A    between atoms: _170  and  _171
REMARK   72  A    between atoms: _170  and  _173
REMARK   73  A    between atoms: _173  and  _174
REMARK   74  A    between atoms: _177  and  _179
REMARK   75  A    between atoms: _179  and  _180
REMARK   76  A    between atoms: _179  and  _182
REMARK   77  A    between atoms: _182  and  _183
REMARK   78  A    between atoms: _185  and  _187
REMARK   79  A    between atoms: _187  and  _188
REMARK   80  A    between atoms: _187  and  _190
REMARK   81  A    between atoms: _190  and  _191
REMARK   82  A    between atoms: _196  and  _197
REMARK   83  A    between atoms: _199  and  _201
REMARK   84  A    between atoms: _201  and  _202
REMARK   85  A    between atoms: _204  and  _206
REMARK   86  A    between atoms: _206  and  _207
REMARK   87  A    between atoms: _206  and  _209
REMARK   88  A    between atoms: _209  and  _210
REMARK   89  A    between atoms: _213  and  _215
REMARK   90  A    between atoms: _215  and  _216
REMARK   91  A    between atoms: _218  and  _220
REMARK   92  A    between atoms: _220  and  _221
REMARK   93  A    between atoms: _220  and  _223
REMARK   94  A    between atoms: _223  and  _224
REMARK   95  A    between atoms: _226  and  _228
REMARK   96  A    between atoms: _228  and  _229
REMARK   97  A    between atoms: _228  and  _231
REMARK   98  A    between atoms: _231  and  _232
REMARK   99  A    between atoms: _234  and  _236
REMARK  100  A    between atoms: _236  and  _237
REMARK  101  A    between atoms: _236  and  _239
REMARK  102  A    between atoms: _239  and  _240
REMARK  103  A    between atoms: _242  and  _244
REMARK  104  A    between atoms: _244  and  _245
REMARK  105  A    between atoms: _244  and  _247
REMARK  106  A    between atoms: _247  and  _248
REMARK  107  A    between atoms: _250  and  _252
REMARK  108  A    between atoms: _252  and  _253
REMARK  109  A    between atoms: _252  and  _255
REMARK  110  A    between atoms: _255  and  _256
REMARK  111  A    between atoms: _262  and  _264
REMARK  112  A    between atoms: _264  and  _265
REMARK  113  A    between atoms: _264  and  _267
REMARK  114  A    between atoms: _267  and  _268
REMARK  115  A    between atoms: _268  and  _269
REMARK  116  A    between atoms: _272  and  _274
REMARK  117  A    between atoms: _274  and  _275
REMARK  118  A    between atoms: _274  and  _277
REMARK  119  A    between atoms: _277  and  _278
REMARK  120  A    between atoms: _281  and  _283
REMARK  121  A    between atoms: _283  and  _284
REMARK  122  A    between atoms: _283  and  _286
REMARK  123  A    between atoms: _286  and  _287
REMARK  124  A    between atoms: _290  and  _292
REMARK  125  A    between atoms: _292  and  _293
REMARK  126  A    between atoms: _292  and  _295
REMARK  127  A    between atoms: _295  and  _296
REMARK  128  A    between atoms: _299  and  _301
REMARK  129  A    between atoms: _301  and  _302
REMARK  130  A    between atoms: _304  and  _306
REMARK  131  A    between atoms: _306  and  _307
REMARK  132  A    between atoms: _306  and  _309
REMARK  133  A    between atoms: _309  and  _310
REMARK  134  A    between atoms: _313  and  _315
REMARK  135  A    between atoms: _315  and  _316
REMARK  136  A    between atoms: _315  and  _318
REMARK  137  A    between atoms: _318  and  _319
REMARK  138  A    between atoms: _322  and  _324
REMARK  139  A    between atoms: _324  and  _325
REMARK  140  A    between atoms: _328  and  _330
REMARK  141  A    between atoms: _330  and  _331
REMARK  142  A    between atoms: _330  and  _333
REMARK  143  A    between atoms: _333  and  _334
REMARK  144  A    between atoms: _337  and  _339
REMARK  145  A    between atoms: _339  and  _340
REMARK  146  A    between atoms: _339  and  _342
REMARK  147  A    between atoms: _342  and  _343
REMARK  148  A    between atoms: _348  and  _350
REMARK  149  A    between atoms: _350  and  _351
REMARK  150  A    between atoms: _350  and  _353
REMARK  151  A    between atoms: _353  and  _354
REMARK  152  A    between atoms: _357  and  _359
REMARK  153  A    between atoms: _359  and  _360
REMARK  154  A    between atoms: _359  and  _362
REMARK  155  A    between atoms: _362  and  _363
REMARK  156  A    between atoms: _363  and  _364
REMARK  157  A    between atoms: _369  and  _371
REMARK  158  A    between atoms: _371  and  _372
REMARK  159  A    between atoms: _374  and  _376
REMARK  160  A    between atoms: _376  and  _377
REMARK  161  A    between atoms: _376  and  _379
REMARK  162  A    between atoms: _379  and  _380
REMARK  163  A    between atoms: _386  and  _388
REMARK  164  A    between atoms: _388  and  _389
REMARK  165  A    between atoms: _388  and  _391
REMARK  166  A    between atoms: _391  and  _392
REMARK  167  A    between atoms: _395  and  _397
REMARK  168  A    between atoms: _397  and  _398
REMARK  169  A    between atoms: _401  and  _403
REMARK  170  A    between atoms: _403  and  _404
REMARK  171  A    between atoms: _403  and  _406
REMARK  172  A    between atoms: _406  and  _407
REMARK  173  A    between atoms: _410  and  _412
REMARK  174  A    between atoms: _412  and  _413
REMARK  175  A    between atoms: _412  and  _415
REMARK  176  A    between atoms: _415  and  _416
REMARK  177  A    between atoms: _419  and  _421
REMARK  178  A    between atoms: _421  and  _422
REMARK  179  A    between atoms: _424  and  _426
REMARK  180  A    between atoms: _426  and  _427
REMARK  181  A    between atoms: _426  and  _429
REMARK  182  A    between atoms: _429  and  _430
REMARK  183  A    between atoms: _433  and  _435
REMARK  184  A    between atoms: _435  and  _436
REMARK  185  A    between atoms: _435  and  _438
REMARK  186  A    between atoms: _438  and  _439
REMARK  187  A    between atoms: _442  and  _444
REMARK  188  A    between atoms: _444  and  _445
REMARK  189  A    between atoms: _444  and  _447
REMARK  190  A    between atoms: _447  and  _448
REMARK  191  A    between atoms: _451  and  _453
REMARK  192  A    between atoms: _453  and  _454
REMARK  193  A    between atoms: _453  and  _456
REMARK  194  A    between atoms: _456  and  _457
REMARK  195  A    between atoms: _460  and  _462
REMARK  196  A    between atoms: _462  and  _463
REMARK  197  A    between atoms: _462  and  _465
REMARK  198  A    between atoms: _465  and  _466
REMARK  199  A    between atoms: _471  and  _472
REMARK  200  A    between atoms: _474  and  _476
REMARK  201  A    between atoms: _476  and  _477
REMARK  202  A    between atoms: _476  and  _479
REMARK  203  A    between atoms: _482  and  _484
REMARK  204  A    between atoms: _484  and  _485
REMARK  205  A    between atoms: _487  and  _489
REMARK  206  A    between atoms: _489  and  _490
REMARK  207  A    between atoms: _489  and  _492
REMARK  208  A    between atoms: _492  and  _493
REMARK  209  A    between atoms: _499  and  _501
REMARK  210  A    between atoms: _501  and  _502
REMARK  211  A    between atoms: _504  and  _506
REMARK  212  A    between atoms: _506  and  _507
REMARK  213  A    between atoms: _506  and  _509
REMARK  214  A    between atoms: _509  and  _510
REMARK  215  A    between atoms: _516  and  _518
REMARK  216  A    between atoms: _518  and  _519
REMARK  217  A    between atoms: _521  and  _523
REMARK  218  A    between atoms: _523  and  _524
REMARK  219  A    between atoms: _526  and  _528
REMARK  220  A    between atoms: _528  and  _529
REMARK  221  A    between atoms: _528  and  _531
REMARK  222  A    between atoms: _531  and  _532
REMARK  223  A    between atoms: _532  and  _533
REMARK  224  A    between atoms: _538  and  _540
REMARK  225  A    between atoms: _540  and  _541
REMARK  226  A    between atoms: _543  and  _545
REMARK  227  A    between atoms: _545  and  _546
REMARK  228  A    between atoms: _545  and  _548
REMARK  229  A    between atoms: _548  and  _549
REMARK  230  A    between atoms: _552  and  _554
REMARK  231  A    between atoms: _554  and  _555
REMARK  232  A    between atoms: _557  and  _559
REMARK  233  A    between atoms: _559  and  _560
REMARK  234  A    between atoms: _559  and  _562
REMARK  235  A    between atoms: _562  and  _563
REMARK  236  A    between atoms: _566  and  _568
REMARK  237  A    between atoms: _568  and  _569
REMARK  238  A    between atoms: _568  and  _571
REMARK  239  A    between atoms: _571  and  _572
REMARK  240  A    between atoms: _577  and  _579
REMARK  241  A    between atoms: _579  and  _580
REMARK  242  A    between atoms: _579  and  _582
REMARK  243  A    between atoms: _582  and  _583
REMARK  244  A    between atoms: _586  and  _588
REMARK  245  A    between atoms: _588  and  _589
REMARK  246  A    between atoms: _591  and  _593
REMARK  247  A    between atoms: _593  and  _594
REMARK  248  A    between atoms: _593  and  _596
REMARK  249  A    between atoms: _596  and  _597
REMARK  250  A    between atoms: _600  and  _602
REMARK  251  A    between atoms: _602  and  _603
REMARK  252  A    between atoms: _602  and  _605
REMARK                            x       y       z     vdW  Elec       q    Type
REMARK                         _______ _______ _______ _____ _____    ______ ____
ROOT
ATOM      1  O   HOH     1      -4.713  33.004  17.751  0.00  0.00    +0.000 OA
ENDROOT
TORSDOF 0
REMARK  Name = ../refined-set-2016/3uri/3uri_pocket.pdb
REMARK  252 active torsions:
REMARK  status: ('A' for Active; 'I' for Inactive)
REMARK    1  A    between atoms: _1  and  _3
REMARK    2  A    between atoms: _3  and  _4
REMARK    3  A    between atoms: _3  and  _6
REMARK    4  A    between atoms: _6  and  _7
REMARK    5  A    between atoms: _10  and  _12
REMARK    6  A    between atoms: _12  and  _13
REMARK    7  A    between atoms: _12  and  _15
REMARK    8  A    between atoms: _15  and  _16
REMARK    9  A    between atoms: _19  and  _21
REMARK   10  A    between atoms: _21  and  _22
REMARK   11  A    between atoms: _21  and  _24
REMARK   12  A    between atoms: _24  and  _25
REMARK   13  A    between atoms: _28  and  _30
REMARK   14  A    between atoms: _30  and  _31
REMARK   15  A    between atoms: _30  and  _33
REMARK   16  A    between atoms: _33  and  _34
REMARK   17  A    between atoms: _37  and  _39
REMARK   18  A    between atoms: _39  and  _40
REMARK   19  A    between atoms: _39  and  _42
REMARK   20  A    between atoms: _42  and  _43
REMARK   21  A    between atoms: _46  and  _48
REMARK   22  A    between atoms: _48  and  _49
REMARK   23  A    between atoms: _52  and  _54
REMARK   24  A    between atoms: _54  and  _55
REMARK   25  A    between atoms: _54  and  _57
REMARK   26  A    between atoms: _57  and  _58
REMARK   27  A    between atoms: _63  and  _64
REMARK   28  A    between atoms: _66  and  _68
REMARK   29  A    between atoms: _68  and  _69
REMARK   30  A    between atoms: _68  and  _71
REMARK   31  A    between atoms: _71  and  _72
REMARK   32  A    between atoms: _75  and  _77
REMARK   33  A    between atoms: _77  and  _78
REMARK   34  A    between atoms: _77  and  _80
REMARK   35  A    between atoms: _80  and  _81
REMARK   36  A    between atoms: _84  and  _86
REMARK   37  A    between atoms: _86  and  _87
REMARK   38  A    between atoms: _86  and  _89
REMARK   39  A    between atoms: _89  and  _90
REMARK   40  A    between atoms: _96  and  _98
REMARK   41  A    between atoms: _98  and  _99
REMARK   42  A    between atoms: _98  and  _101
REMARK   43  A    between atoms: _101  and  _102
REMARK   44  A    between atoms: _105  and  _107
REMARK   45  A    between atoms: _107  and  _108
REMARK   46  A    between atoms: _107  and  _110
REMARK   47  A    between atoms: _110  and  _111
REMARK   48  A    between atoms: _114  and  _116
REMARK   49  A    between atoms: _116  and  _117
REMARK   50  A    between atoms: _119  and  _121
REMARK   51  A    between atoms: _121  and  _122
REMARK   52  A    between atoms: _121  and  _124
REMARK   53  A    between atoms: _124  and  _125
REMARK   54  A    between atoms: _127  and  _129
REMARK   55  A    between atoms: _129  and  _130
REMARK   56  A    between atoms: _129  and  _132
REMARK   57  A    between atoms: _132  and  _133
REMARK   58  A    between atoms: _135  and  _137
REMARK   59  A    between atoms: _137  and  _138
REMARK   60  A    between atoms: _137  and  _140
REMARK   61  A    between atoms: _140  and  _141
REMARK   62  A    between atoms: _144  and  _146
REMARK   63  A    between atoms: _146  and  _147
REMARK   64  A    between atoms: _146  and  _149
REMARK   65  A    between atoms: _149  and  _150
REMARK   66  A    between atoms: _160  and  _162
REMARK   67  A    between atoms: _162  and  _163
REMARK   68  A    between atoms: _162  and  _165
REMARK   69  A    between atoms: _165  and  _166
REMARK   70  A    between atoms: _168  and  _170
REMARK   71  A    between atoms: _170  and  _171
REMARK   72  A    between atoms: _170  and  _173
REMARK   73  A    between atoms: _173  and  _174
REMARK   74  A    between atoms: _177  and  _179
REMARK   75  A    between atoms: _179  and  _180
REMARK   76  A    between atoms: _179  and  _182
REMARK   77  A    between atoms: _182  and  _183
REMARK   78  A    between atoms: _185  and  _187
REMARK   79  A    between atoms: _187  and  _188
REMARK   80  A    between atoms: _187  and  _190
REMARK   81  A    between atoms: _190  and  _191
REMARK   82  A    between atoms: _196  and  _197
REMARK   83  A    between atoms: _199  and  _201
REMARK   84  A    between atoms: _201  and  _202
REMARK   85  A    between atoms: _204  and  _206
REMARK   86  A    between atoms: _206  and  _207
REMARK   87  A    between atoms: _206  and  _209
REMARK   88  A    between atoms: _209  and  _210
REMARK   89  A    between atoms: _213  and  _215
REMARK   90  A    between atoms: _215  and  _216
REMARK   91  A    between atoms: _218  and  _220
REMARK   92  A    between atoms: _220  and  _221
REMARK   93  A    between atoms: _220  and  _223
REMARK   94  A    between atoms: _223  and  _224
REMARK   95  A    between atoms: _226  and  _228
REMARK   96  A    between atoms: _228  and  _229
REMARK   97  A    between atoms: _228  and  _231
REMARK   98  A    between atoms: _231  and  _232
REMARK   99  A    between atoms: _234  and  _236
REMARK  100  A    between atoms: _236  and  _237
REMARK  101  A    between atoms: _236  and  _239
REMARK  102  A    between atoms: _239  and  _240
REMARK  103  A    between atoms: _242  and  _244
REMARK  104  A    between atoms: _244  and  _245
REMARK  105  A    between atoms: _244  and  _247
REMARK  106  A    between atoms: _247  and  _248
REMARK  107  A    between atoms: _250  and  _252
REMARK  108  A    between atoms: _252  and  _253
REMARK  109  A    between atoms: _252  and  _255
REMARK  110  A    between atoms: _255  and  _256
REMARK  111  A    between atoms: _262  and  _264
REMARK  112  A    between atoms: _264  and  _265
REMARK  113  A    between atoms: _264  and  _267
REMARK  114  A    between atoms: _267  and  _268
REMARK  115  A    between atoms: _268  and  _269
REMARK  116  A    between atoms: _272  and  _274
REMARK  117  A    between atoms: _274  and  _275
REMARK  118  A    between atoms: _274  and  _277
REMARK  119  A    between atoms: _277  and  _278
REMARK  120  A    between atoms: _281  and  _283
REMARK  121  A    between atoms: _283  and  _284
REMARK  122  A    between atoms: _283  and  _286
REMARK  123  A    between atoms: _286  and  _287
REMARK  124  A    between atoms: _290  and  _292
REMARK  125  A    between atoms: _292  and  _293
REMARK  126  A    between atoms: _292  and  _295
REMARK  127  A    between atoms: _295  and  _296
REMARK  128  A    between atoms: _299  and  _301
REMARK  129  A    between atoms: _301  and  _302
REMARK  130  A    between atoms: _304  and  _306
REMARK  131  A    between atoms: _306  and  _307
REMARK  132  A    between atoms: _306  and  _309
REMARK  133  A    between atoms: _309  and  _310
REMARK  134  A    between atoms: _313  and  _315
REMARK  135  A    between atoms: _315  and  _316
REMARK  136  A    between atoms: _315  and  _318
REMARK  137  A    between atoms: _318  and  _319
REMARK  138  A    between atoms: _322  and  _324
REMARK  139  A    between atoms: _324  and  _325
REMARK  140  A    between atoms: _328  and  _330
REMARK  141  A    between atoms: _330  and  _331
REMARK  142  A    between atoms: _330  and  _333
REMARK  143  A    between atoms: _333  and  _334
REMARK  144  A    between atoms: _337  and  _339
REMARK  145  A    between atoms: _339  and  _340
REMARK  146  A    between atoms: _339  and  _342
REMARK  147  A    between atoms: _342  and  _343
REMARK  148  A    between atoms: _348  and  _350
REMARK  149  A    between atoms: _350  and  _351
REMARK  150  A    between atoms: _350  and  _353
REMARK  151  A    between atoms: _353  and  _354
REMARK  152  A    between atoms: _357  and  _359
REMARK  153  A    between atoms: _359  and  _360
REMARK  154  A    between atoms: _359  and  _362
REMARK  155  A    between atoms: _362  and  _363
REMARK  156  A    between atoms: _363  and  _364
REMARK  157  A    between atoms: _369  and  _371
REMARK  158  A    between atoms: _371  and  _372
REMARK  159  A    between atoms: _374  and  _376
REMARK  160  A    between atoms: _376  and  _377
REMARK  161  A    between atoms: _376  and  _379
REMARK  162  A    between atoms: _379  and  _380
REMARK  163  A    between atoms: _386  and  _388
REMARK  164  A    between atoms: _388  and  _389
REMARK  165  A    between atoms: _388  and  _391
REMARK  166  A    between atoms: _391  and  _392
REMARK  167  A    between atoms: _395  and  _397
REMARK  168  A    between atoms: _397  and  _398
REMARK  169  A    between atoms: _401  and  _403
REMARK  170  A    between atoms: _403  and  _404
REMARK  171  A    between atoms: _403  and  _406
REMARK  172  A    between atoms: _406  and  _407
REMARK  173  A    between atoms: _410  and  _412
REMARK  174  A    between atoms: _412  and  _413
REMARK  175  A    between atoms: _412  and  _415
REMARK  176  A    between atoms: _415  and  _416
REMARK  177  A    between atoms: _419  and  _421
REMARK  178  A    between atoms: _421  and  _422
REMARK  179  A    between atoms: _424  and  _426
REMARK  180  A    between atoms: _426  and  _427
REMARK  181  A    between atoms: _426  and  _429
REMARK  182  A    between atoms: _429  and  _430
REMARK  183  A    between atoms: _433  and  _435
REMARK  184  A    between atoms: _435  and  _436
REMARK  185  A    between atoms: _435  and  _438
REMARK  186  A    between atoms: _438  and  _439
REMARK  187  A    between atoms: _442  and  _444
REMARK  188  A    between atoms: _444  and  _445
REMARK  189  A    between atoms: _444  and  _447
REMARK  190  A    between atoms: _447  and  _448
REMARK  191  A    between atoms: _451  and  _453
REMARK  192  A    between atoms: _453  and  _454
REMARK  193  A    between atoms: _453  and  _456
REMARK  194  A    between atoms: _456  and  _457
REMARK  195  A    between atoms: _460  and  _462
REMARK  196  A    between atoms: _462  and  _463
REMARK  197  A    between atoms: _462  and  _465
REMARK  198  A    between atoms: _465  and  _466
REMARK  199  A    between atoms: _471  and  _472
REMARK  200  A    between atoms: _474  and  _476
REMARK  201  A    between atoms: _476  and  _477
REMARK  202  A    between atoms: _476  and  _479
REMARK  203  A    between atoms: _482  and  _484
REMARK  204  A    between atoms: _484  and  _485
REMARK  205  A    between atoms: _487  and  _489
REMARK  206  A    between atoms: _489  and  _490
REMARK  207  A    between atoms: _489  and  _492
REMARK  208  A    between atoms: _492  and  _493
REMARK  209  A    between atoms: _499  and  _501
REMARK  210  A    between atoms: _501  and  _502
REMARK  211  A    between atoms: _504  and  _506
REMARK  212  A    between atoms: _506  and  _507
REMARK  213  A    between atoms: _506  and  _509
REMARK  214  A    between atoms: _509  and  _510
REMARK  215  A    between atoms: _516  and  _518
REMARK  216  A    between atoms: _518  and  _519
REMARK  217  A    between atoms: _521  and  _523
REMARK  218  A    between atoms: _523  and  _524
REMARK  219  A    between atoms: _526  and  _528
REMARK  220  A    between atoms: _528  and  _529
REMARK  221  A    between atoms: _528  and  _531
REMARK  222  A    between atoms: _531  and  _532
REMARK  223  A    between atoms: _532  and  _533
REMARK  224  A    between atoms: _538  and  _540
REMARK  225  A    between atoms: _540  and  _541
REMARK  226  A    between atoms: _543  and  _545
REMARK  227  A    between atoms: _545  and  _546
REMARK  228  A    between atoms: _545  and  _548
REMARK  229  A    between atoms: _548  and  _549
REMARK  230  A    between atoms: _552  and  _554
REMARK  231  A    between atoms: _554  and  _555
REMARK  232  A    between atoms: _557  and  _559
REMARK  233  A    between atoms: _559  and  _560
REMARK  234  A    between atoms: _559  and  _562
REMARK  235  A    between atoms: _562  and  _563
REMARK  236  A    between atoms: _566  and  _568
REMARK  237  A    between atoms: _568  and  _569
REMARK  238  A    between atoms: _568  and  _571
REMARK  239  A    between atoms: _571  and  _572
REMARK  240  A    between atoms: _577  and  _579
REMARK  241  A    between atoms: _579  and  _580
REMARK  242  A    between atoms: _579  and  _582
REMARK  243  A    between atoms: _582  and  _583
REMARK  244  A    between atoms: _586  and  _588
REMARK  245  A    between atoms: _588  and  _589
REMARK  246  A    between atoms: _591  and  _593
REMARK  247  A    between atoms: _593  and  _594
REMARK  248  A    between atoms: _593  and  _596
REMARK  249  A    between atoms: _596  and  _597
REMARK  250  A    between atoms: _600  and  _602
REMARK  251  A    between atoms: _602  and  _603
REMARK  252  A    between atoms: _602  and  _605
REMARK                            x       y       z     vdW  Elec       q    Type
REMARK                         _______ _______ _______ _____ _____    ______ ____
ROOT
ATOM      1  O   HOH     1       2.523  44.030  13.632  0.00  0.00    +0.000 OA
ENDROOT
TORSDOF 0
REMARK  Name = ../refined-set-2016/3uri/3uri_pocket.pdb
REMARK  252 active torsions:
REMARK  status: ('A' for Active; 'I' for Inactive)
REMARK    1  A    between atoms: _1  and  _3
REMARK    2  A    between atoms: _3  and  _4
REMARK    3  A    between atoms: _3  and  _6
REMARK    4  A    between atoms: _6  and  _7
REMARK    5  A    between atoms: _10  and  _12
REMARK    6  A    between atoms: _12  and  _13
REMARK    7  A    between atoms: _12  and  _15
REMARK    8  A    between atoms: _15  and  _16
REMARK    9  A    between atoms: _19  and  _21
REMARK   10  A    between atoms: _21  and  _22
REMARK   11  A    between atoms: _21  and  _24
REMARK   12  A    between atoms: _24  and  _25
REMARK   13  A    between atoms: _28  and  _30
REMARK   14  A    between atoms: _30  and  _31
REMARK   15  A    between atoms: _30  and  _33
REMARK   16  A    between atoms: _33  and  _34
REMARK   17  A    between atoms: _37  and  _39
REMARK   18  A    between atoms: _39  and  _40
REMARK   19  A    between atoms: _39  and  _42
REMARK   20  A    between atoms: _42  and  _43
REMARK   21  A    between atoms: _46  and  _48
REMARK   22  A    between atoms: _48  and  _49
REMARK   23  A    between atoms: _52  and  _54
REMARK   24  A    between atoms: _54  and  _55
REMARK   25  A    between atoms: _54  and  _57
REMARK   26  A    between atoms: _57  and  _58
REMARK   27  A    between atoms: _63  and  _64
REMARK   28  A    between atoms: _66  and  _68
REMARK   29  A    between atoms: _68  and  _69
REMARK   30  A    between atoms: _68  and  _71
REMARK   31  A    between atoms: _71  and  _72
REMARK   32  A    between atoms: _75  and  _77
REMARK   33  A    between atoms: _77  and  _78
REMARK   34  A    between atoms: _77  and  _80
REMARK   35  A    between atoms: _80  and  _81
REMARK   36  A    between atoms: _84  and  _86
REMARK   37  A    between atoms: _86  and  _87
REMARK   38  A    between atoms: _86  and  _89
REMARK   39  A    between atoms: _89  and  _90
REMARK   40  A    between atoms: _96  and  _98
REMARK   41  A    between atoms: _98  and  _99
REMARK   42  A    between atoms: _98  and  _101
REMARK   43  A    between atoms: _101  and  _102
REMARK   44  A    between atoms: _105  and  _107
REMARK   45  A    between atoms: _107  and  _108
REMARK   46  A    between atoms: _107  and  _110
REMARK   47  A    between atoms: _110  and  _111
REMARK   48  A    between atoms: _114  and  _116
REMARK   49  A    between atoms: _116  and  _117
REMARK   50  A    between atoms: _119  and  _121
REMARK   51  A    between atoms: _121  and  _122
REMARK   52  A    between atoms: _121  and  _124
REMARK   53  A    between atoms: _124  and  _125
REMARK   54  A    between atoms: _127  and  _129
REMARK   55  A    between atoms: _129  and  _130
REMARK   56  A    between atoms: _129  and  _132
REMARK   57  A    between atoms: _132  and  _133
REMARK   58  A    between atoms: _135  and  _137
REMARK   59  A    between atoms: _137  and  _138
REMARK   60  A    between atoms: _137  and  _140
REMARK   61  A    between atoms: _140  and  _141
REMARK   62  A    between atoms: _144  and  _146
REMARK   63  A    between atoms: _146  and  _147
REMARK   64  A    between atoms: _146  and  _149
REMARK   65  A    between atoms: _149  and  _150
REMARK   66  A    between atoms: _160  and  _162
REMARK   67  A    between atoms: _162  and  _163
REMARK   68  A    between atoms: _162  and  _165
REMARK   69  A    between atoms: _165  and  _166
REMARK   70  A    between atoms: _168  and  _170
REMARK   71  A    between atoms: _170  and  _171
REMARK   72  A    between atoms: _170  and  _173
REMARK   73  A    between atoms: _173  and  _174
REMARK   74  A    between atoms: _177  and  _179
REMARK   75  A    between atoms: _179  and  _180
REMARK   76  A    between atoms: _179  and  _182
REMARK   77  A    between atoms: _182  and  _183
REMARK   78  A    between atoms: _185  and  _187
REMARK   79  A    between atoms: _187  and  _188
REMARK   80  A    between atoms: _187  and  _190
REMARK   81  A    between atoms: _190  and  _191
REMARK   82  A    between atoms: _196  and  _197
REMARK   83  A    between atoms: _199  and  _201
REMARK   84  A    between atoms: _201  and  _202
REMARK   85  A    between atoms: _204  and  _206
REMARK   86  A    between atoms: _206  and  _207
REMARK   87  A    between atoms: _206  and  _209
REMARK   88  A    between atoms: _209  and  _210
REMARK   89  A    between atoms: _213  and  _215
REMARK   90  A    between atoms: _215  and  _216
REMARK   91  A    between atoms: _218  and  _220
REMARK   92  A    between atoms: _220  and  _221
REMARK   93  A    between atoms: _220  and  _223
REMARK   94  A    between atoms: _223  and  _224
REMARK   95  A    between atoms: _226  and  _228
REMARK   96  A    between atoms: _228  and  _229
REMARK   97  A    between atoms: _228  and  _231
REMARK   98  A    between atoms: _231  and  _232
REMARK   99  A    between atoms: _234  and  _236
REMARK  100  A    between atoms: _236  and  _237
REMARK  101  A    between atoms: _236  and  _239
REMARK  102  A    between atoms: _239  and  _240
REMARK  103  A    between atoms: _242  and  _244
REMARK  104  A    between atoms: _244  and  _245
REMARK  105  A    between atoms: _244  and  _247
REMARK  106  A    between atoms: _247  and  _248
REMARK  107  A    between atoms: _250  and  _252
REMARK  108  A    between atoms: _252  and  _253
REMARK  109  A    between atoms: _252  and  _255
REMARK  110  A    between atoms: _255  and  _256
REMARK  111  A    between atoms: _262  and  _264
REMARK  112  A    between atoms: _264  and  _265
REMARK  113  A    between atoms: _264  and  _267
REMARK  114  A    between atoms: _267  and  _268
REMARK  115  A    between atoms: _268  and  _269
REMARK  116  A    between atoms: _272  and  _274
REMARK  117  A    between atoms: _274  and  _275
REMARK  118  A    between atoms: _274  and  _277
REMARK  119  A    between atoms: _277  and  _278
REMARK  120  A    between atoms: _281  and  _283
REMARK  121  A    between atoms: _283  and  _284
REMARK  122  A    between atoms: _283  and  _286
REMARK  123  A    between atoms: _286  and  _287
REMARK  124  A    between atoms: _290  and  _292
REMARK  125  A    between atoms: _292  and  _293
REMARK  126  A    between atoms: _292  and  _295
REMARK  127  A    between atoms: _295  and  _296
REMARK  128  A    between atoms: _299  and  _301
REMARK  129  A    between atoms: _301  and  _302
REMARK  130  A    between atoms: _304  and  _306
REMARK  131  A    between atoms: _306  and  _307
REMARK  132  A    between atoms: _306  and  _309
REMARK  133  A    between atoms: _309  and  _310
REMARK  134  A    between atoms: _313  and  _315
REMARK  135  A    between atoms: _315  and  _316
REMARK  136  A    between atoms: _315  and  _318
REMARK  137  A    between atoms: _318  and  _319
REMARK  138  A    between atoms: _322  and  _324
REMARK  139  A    between atoms: _324  and  _325
REMARK  140  A    between atoms: _328  and  _330
REMARK  141  A    between atoms: _330  and  _331
REMARK  142  A    between atoms: _330  and  _333
REMARK  143  A    between atoms: _333  and  _334
REMARK  144  A    between atoms: _337  and  _339
REMARK  145  A    between atoms: _339  and  _340
REMARK  146  A    between atoms: _339  and  _342
REMARK  147  A    between atoms: _342  and  _343
REMARK  148  A    between atoms: _348  and  _350
REMARK  149  A    between atoms: _350  and  _351
REMARK  150  A    between atoms: _350  and  _353
REMARK  151  A    between atoms: _353  and  _354
REMARK  152  A    between atoms: _357  and  _359
REMARK  153  A    between atoms: _359  and  _360
REMARK  154  A    between atoms: _359  and  _362
REMARK  155  A    between atoms: _362  and  _363
REMARK  156  A    between atoms: _363  and  _364
REMARK  157  A    between atoms: _369  and  _371
REMARK  158  A    between atoms: _371  and  _372
REMARK  159  A    between atoms: _374  and  _376
REMARK  160  A    between atoms: _376  and  _377
REMARK  161  A    between atoms: _376  and  _379
REMARK  162  A    between atoms: _379  and  _380
REMARK  163  A    between atoms: _386  and  _388
REMARK  164  A    between atoms: _388  and  _389
REMARK  165  A    between atoms: _388  and  _391
REMARK  166  A    between atoms: _391  and  _392
REMARK  167  A    between atoms: _395  and  _397
REMARK  168  A    between atoms: _397  and  _398
REMARK  169  A    between atoms: _401  and  _403
REMARK  170  A    between atoms: _403  and  _404
REMARK  171  A    between atoms: _403  and  _406
REMARK  172  A    between atoms: _406  and  _407
REMARK  173  A    between atoms: _410  and  _412
REMARK  174  A    between atoms: _412  and  _413
REMARK  175  A    between atoms: _412  and  _415
REMARK  176  A    between atoms: _415  and  _416
REMARK  177  A    between atoms: _419  and  _421
REMARK  178  A    between atoms: _421  and  _422
REMARK  179  A    between atoms: _424  and  _426
REMARK  180  A    between atoms: _426  and  _427
REMARK  181  A    between atoms: _426  and  _429
REMARK  182  A    between atoms: _429  and  _430
REMARK  183  A    between atoms: _433  and  _435
REMARK  184  A    between atoms: _435  and  _436
REMARK  185  A    between atoms: _435  and  _438
REMARK  186  A    between atoms: _438  and  _439
REMARK  187  A    between atoms: _442  and  _444
REMARK  188  A    between atoms: _444  and  _445
REMARK  189  A    between atoms: _444  and  _447
REMARK  190  A    between atoms: _447  and  _448
REMARK  191  A    between atoms: _451  and  _453
REMARK  192  A    between atoms: _453  and  _454
REMARK  193  A    between atoms: _453  and  _456
REMARK  194  A    between atoms: _456  and  _457
REMARK  195  A    between atoms: _460  and  _462
REMARK  196  A    between atoms: _462  and  _463
REMARK  197  A    between atoms: _462  and  _465
REMARK  198  A    between atoms: _465  and  _466
REMARK  199  A    between atoms: _471  and  _472
REMARK  200  A    between atoms: _474  and  _476
REMARK  201  A    between atoms: _476  and  _477
REMARK  202  A    between atoms: _476  and  _479
REMARK  203  A    between atoms: _482  and  _484
REMARK  204  A    between atoms: _484  and  _485
REMARK  205  A    between atoms: _487  and  _489
REMARK  206  A    between atoms: _489  and  _490
REMARK  207  A    between atoms: _489  and  _492
REMARK  208  A    between atoms: _492  and  _493
REMARK  209  A    between atoms: _499  and  _501
REMARK  210  A    between atoms: _501  and  _502
REMARK  211  A    between atoms: _504  and  _506
REMARK  212  A    between atoms: _506  and  _507
REMARK  213  A    between atoms: _506  and  _509
REMARK  214  A    between atoms: _509  and  _510
REMARK  215  A    between atoms: _516  and  _518
REMARK  216  A    between atoms: _518  and  _519
REMARK  217  A    between atoms: _521  and  _523
REMARK  218  A    between atoms: _523  and  _524
REMARK  219  A    between atoms: _526  and  _528
REMARK  220  A    between atoms: _528  and  _529
REMARK  221  A    between atoms: _528  and  _531
REMARK  222  A    between atoms: _531  and  _532
REMARK  223  A    between atoms: _532  and  _533
REMARK  224  A    between atoms: _538  and  _540
REMARK  225  A    between atoms: _540  and  _541
REMARK  226  A    between atoms: _543  and  _545
REMARK  227  A    between atoms: _545  and  _546
REMARK  228  A    between atoms: _545  and  _548
REMARK  229  A    between atoms: _548  and  _549
REMARK  230  A    between atoms: _552  and  _554
REMARK  231  A    between atoms: _554  and  _555
REMARK  232  A    between atoms: _557  and  _559
REMARK  233  A    between atoms: _559  and  _560
REMARK  234  A    between atoms: _559  and  _562
REMARK  235  A    between atoms: _562  and  _563
REMARK  236  A    between atoms: _566  and  _568
REMARK  237  A    between atoms: _568  and  _569
REMARK  238  A    between atoms: _568  and  _571
REMARK  239  A    between atoms: _571  and  _572
REMARK  240  A    between atoms: _577  and  _579
REMARK  241  A    between atoms: _579  and  _580
REMARK  242  A    between atoms: _579  and  _582
REMARK  243  A    between atoms: _582  and  _583
REMARK  244  A    between atoms: _586  and  _588
REMARK  245  A    between atoms: _588  and  _589
REMARK  246  A    between atoms: _591  and  _593
REMARK  247  A    between atoms: _593  and  _594
REMARK  248  A    between atoms: _593  and  _596
REMARK  249  A    between atoms: _596  and  _597
REMARK  250  A    between atoms: _600  and  _602
REMARK  251  A    between atoms: _602  and  _603
REMARK  252  A    between atoms: _602  and  _605
REMARK                            x       y       z     vdW  Elec       q    Type
REMARK                         _______ _______ _______ _____ _____    ______ ____
ROOT
ATOM      1  O   HOH     1       1.636  25.912  16.235  0.00  0.00    +0.000 OA
ENDROOT
TORSDOF 0
REMARK  Name = ../refined-set-2016/3uri/3uri_pocket.pdb
REMARK  252 active torsions:
REMARK  status: ('A' for Active; 'I' for Inactive)
REMARK    1  A    between atoms: _1  and  _3
REMARK    2  A    between atoms: _3  and  _4
REMARK    3  A    between atoms: _3  and  _6
REMARK    4  A    between atoms: _6  and  _7
REMARK    5  A    between atoms: _10  and  _12
REMARK    6  A    between atoms: _12  and  _13
REMARK    7  A    between atoms: _12  and  _15
REMARK    8  A    between atoms: _15  and  _16
REMARK    9  A    between atoms: _19  and  _21
REMARK   10  A    between atoms: _21  and  _22
REMARK   11  A    between atoms: _21  and  _24
REMARK   12  A    between atoms: _24  and  _25
REMARK   13  A    between atoms: _28  and  _30
REMARK   14  A    between atoms: _30  and  _31
REMARK   15  A    between atoms: _30  and  _33
REMARK   16  A    between atoms: _33  and  _34
REMARK   17  A    between atoms: _37  and  _39
REMARK   18  A    between atoms: _39  and  _40
REMARK   19  A    between atoms: _39  and  _42
REMARK   20  A    between atoms: _42  and  _43
REMARK   21  A    between atoms: _46  and  _48
REMARK   22  A    between atoms: _48  and  _49
REMARK   23  A    between atoms: _52  and  _54
REMARK   24  A    between atoms: _54  and  _55
REMARK   25  A    between atoms: _54  and  _57
REMARK   26  A    between atoms: _57  and  _58
REMARK   27  A    between atoms: _63  and  _64
REMARK   28  A    between atoms: _66  and  _68
REMARK   29  A    between atoms: _68  and  _69
REMARK   30  A    between atoms: _68  and  _71
REMARK   31  A    between atoms: _71  and  _72
REMARK   32  A    between atoms: _75  and  _77
REMARK   33  A    between atoms: _77  and  _78
REMARK   34  A    between atoms: _77  and  _80
REMARK   35  A    between atoms: _80  and  _81
REMARK   36  A    between atoms: _84  and  _86
REMARK   37  A    between atoms: _86  and  _87
REMARK   38  A    between atoms: _86  and  _89
REMARK   39  A    between atoms: _89  and  _90
REMARK   40  A    between atoms: _96  and  _98
REMARK   41  A    between atoms: _98  and  _99
REMARK   42  A    between atoms: _98  and  _101
REMARK   43  A    between atoms: _101  and  _102
REMARK   44  A    between atoms: _105  and  _107
REMARK   45  A    between atoms: _107  and  _108
REMARK   46  A    between atoms: _107  and  _110
REMARK   47  A    between atoms: _110  and  _111
REMARK   48  A    between atoms: _114  and  _116
REMARK   49  A    between atoms: _116  and  _117
REMARK   50  A    between atoms: _119  and  _121
REMARK   51  A    between atoms: _121  and  _122
REMARK   52  A    between atoms: _121  and  _124
REMARK   53  A    between atoms: _124  and  _125
REMARK   54  A    between atoms: _127  and  _129
REMARK   55  A    between atoms: _129  and  _130
REMARK   56  A    between atoms: _129  and  _132
REMARK   57  A    between atoms: _132  and  _133
REMARK   58  A    between atoms: _135  and  _137
REMARK   59  A    between atoms: _137  and  _138
REMARK   60  A    between atoms: _137  and  _140
REMARK   61  A    between atoms: _140  and  _141
REMARK   62  A    between atoms: _144  and  _146
REMARK   63  A    between atoms: _146  and  _147
REMARK   64  A    between atoms: _146  and  _149
REMARK   65  A    between atoms: _149  and  _150
REMARK   66  A    between atoms: _160  and  _162
REMARK   67  A    between atoms: _162  and  _163
REMARK   68  A    between atoms: _162  and  _165
REMARK   69  A    between atoms: _165  and  _166
REMARK   70  A    between atoms: _168  and  _170
REMARK   71  A    between atoms: _170  and  _171
REMARK   72  A    between atoms: _170  and  _173
REMARK   73  A    between atoms: _173  and  _174
REMARK   74  A    between atoms: _177  and  _179
REMARK   75  A    between atoms: _179  and  _180
REMARK   76  A    between atoms: _179  and  _182
REMARK   77  A    between atoms: _182  and  _183
REMARK   78  A    between atoms: _185  and  _187
REMARK   79  A    between atoms: _187  and  _188
REMARK   80  A    between atoms: _187  and  _190
REMARK   81  A    between atoms: _190  and  _191
REMARK   82  A    between atoms: _196  and  _197
REMARK   83  A    between atoms: _199  and  _201
REMARK   84  A    between atoms: _201  and  _202
REMARK   85  A    between atoms: _204  and  _206
REMARK   86  A    between atoms: _206  and  _207
REMARK   87  A    between atoms: _206  and  _209
REMARK   88  A    between atoms: _209  and  _210
REMARK   89  A    between atoms: _213  and  _215
REMARK   90  A    between atoms: _215  and  _216
REMARK   91  A    between atoms: _218  and  _220
REMARK   92  A    between atoms: _220  and  _221
REMARK   93  A    between atoms: _220  and  _223
REMARK   94  A    between atoms: _223  and  _224
REMARK   95  A    between atoms: _226  and  _228
REMARK   96  A    between atoms: _228  and  _229
REMARK   97  A    between atoms: _228  and  _231
REMARK   98  A    between atoms: _231  and  _232
REMARK   99  A    between atoms: _234  and  _236
REMARK  100  A    between atoms: _236  and  _237
REMARK  101  A    between atoms: _236  and  _239
REMARK  102  A    between atoms: _239  and  _240
REMARK  103  A    between atoms: _242  and  _244
REMARK  104  A    between atoms: _244  and  _245
REMARK  105  A    between atoms: _244  and  _247
REMARK  106  A    between atoms: _247  and  _248
REMARK  107  A    between atoms: _250  and  _252
REMARK  108  A    between atoms: _252  and  _253
REMARK  109  A    between atoms: _252  and  _255
REMARK  110  A    between atoms: _255  and  _256
REMARK  111  A    between atoms: _262  and  _264
REMARK  112  A    between atoms: _264  and  _265
REMARK  113  A    between atoms: _264  and  _267
REMARK  114  A    between atoms: _267  and  _268
REMARK  115  A    between atoms: _268  and  _269
REMARK  116  A    between atoms: _272  and  _274
REMARK  117  A    between atoms: _274  and  _275
REMARK  118  A    between atoms: _274  and  _277
REMARK  119  A    between atoms: _277  and  _278
REMARK  120  A    between atoms: _281  and  _283
REMARK  121  A    between atoms: _283  and  _284
REMARK  122  A    between atoms: _283  and  _286
REMARK  123  A    between atoms: _286  and  _287
REMARK  124  A    between atoms: _290  and  _292
REMARK  125  A    between atoms: _292  and  _293
REMARK  126  A    between atoms: _292  and  _295
REMARK  127  A    between atoms: _295  and  _296
REMARK  128  A    between atoms: _299  and  _301
REMARK  129  A    between atoms: _301  and  _302
REMARK  130  A    between atoms: _304  and  _306
REMARK  131  A    between atoms: _306  and  _307
REMARK  132  A    between atoms: _306  and  _309
REMARK  133  A    between atoms: _309  and  _310
REMARK  134  A    between atoms: _313  and  _315
REMARK  135  A    between atoms: _315  and  _316
REMARK  136  A    between atoms: _315  and  _318
REMARK  137  A    between atoms: _318  and  _319
REMARK  138  A    between atoms: _322  and  _324
REMARK  139  A    between atoms: _324  and  _325
REMARK  140  A    between atoms: _328  and  _330
REMARK  141  A    between atoms: _330  and  _331
REMARK  142  A    between atoms: _330  and  _333
REMARK  143  A    between atoms: _333  and  _334
REMARK  144  A    between atoms: _337  and  _339
REMARK  145  A    between atoms: _339  and  _340
REMARK  146  A    between atoms: _339  and  _342
REMARK  147  A    between atoms: _342  and  _343
REMARK  148  A    between atoms: _348  and  _350
REMARK  149  A    between atoms: _350  and  _351
REMARK  150  A    between atoms: _350  and  _353
REMARK  151  A    between atoms: _353  and  _354
REMARK  152  A    between atoms: _357  and  _359
REMARK  153  A    between atoms: _359  and  _360
REMARK  154  A    between atoms: _359  and  _362
REMARK  155  A    between atoms: _362  and  _363
REMARK  156  A    between atoms: _363  and  _364
REMARK  157  A    between atoms: _369  and  _371
REMARK  158  A    between atoms: _371  and  _372
REMARK  159  A    between atoms: _374  and  _376
REMARK  160  A    between atoms: _376  and  _377
REMARK  161  A    between atoms: _376  and  _379
REMARK  162  A    between atoms: _379  and  _380
REMARK  163  A    between atoms: _386  and  _388
REMARK  164  A    between atoms: _388  and  _389
REMARK  165  A    between atoms: _388  and  _391
REMARK  166  A    between atoms: _391  and  _392
REMARK  167  A    between atoms: _395  and  _397
REMARK  168  A    between atoms: _397  and  _398
REMARK  169  A    between atoms: _401  and  _403
REMARK  170  A    between atoms: _403  and  _404
REMARK  171  A    between atoms: _403  and  _406
REMARK  172  A    between atoms: _406  and  _407
REMARK  173  A    between atoms: _410  and  _412
REMARK  174  A    between atoms: _412  and  _413
REMARK  175  A    between atoms: _412  and  _415
REMARK  176  A    between atoms: _415  and  _416
REMARK  177  A    between atoms: _419  and  _421
REMARK  178  A    between atoms: _421  and  _422
REMARK  179  A    between atoms: _424  and  _426
REMARK  180  A    between atoms: _426  and  _427
REMARK  181  A    between atoms: _426  and  _429
REMARK  182  A    between atoms: _429  and  _430
REMARK  183  A    between atoms: _433  and  _435
REMARK  184  A    between atoms: _435  and  _436
REMARK  185  A    between atoms: _435  and  _438
REMARK  186  A    between atoms: _438  and  _439
REMARK  187  A    between atoms: _442  and  _444
REMARK  188  A    between atoms: _444  and  _445
REMARK  189  A    between atoms: _444  and  _447
REMARK  190  A    between atoms: _447  and  _448
REMARK  191  A    between atoms: _451  and  _453
REMARK  192  A    between atoms: _453  and  _454
REMARK  193  A    between atoms: _453  and  _456
REMARK  194  A    between atoms: _456  and  _457
REMARK  195  A    between atoms: _460  and  _462
REMARK  196  A    between atoms: _462  and  _463
REMARK  197  A    between atoms: _462  and  _465
REMARK  198  A    between atoms: _465  and  _466
REMARK  199  A    between atoms: _471  and  _472
REMARK  200  A    between atoms: _474  and  _476
REMARK  201  A    between atoms: _476  and  _477
REMARK  202  A    between atoms: _476  and  _479
REMARK  203  A    between atoms: _482  and  _484
REMARK  204  A    between atoms: _484  and  _485
REMARK  205  A    between atoms: _487  and  _489
REMARK  206  A    between atoms: _489  and  _490
REMARK  207  A    between atoms: _489  and  _492
REMARK  208  A    between atoms: _492  and  _493
REMARK  209  A    between atoms: _499  and  _501
REMARK  210  A    between atoms: _501  and  _502
REMARK  211  A    between atoms: _504  and  _506
REMARK  212  A    between atoms: _506  and  _507
REMARK  213  A    between atoms: _506  and  _509
REMARK  214  A    between atoms: _509  and  _510
REMARK  215  A    between atoms: _516  and  _518
REMARK  216  A    between atoms: _518  and  _519
REMARK  217  A    between atoms: _521  and  _523
REMARK  218  A    between atoms: _523  and  _524
REMARK  219  A    between atoms: _526  and  _528
REMARK  220  A    between atoms: _528  and  _529
REMARK  221  A    between atoms: _528  and  _531
REMARK  222  A    between atoms: _531  and  _532
REMARK  223  A    between atoms: _532  and  _533
REMARK  224  A    between atoms: _538  and  _540
REMARK  225  A    between atoms: _540  and  _541
REMARK  226  A    between atoms: _543  and  _545
REMARK  227  A    between atoms: _545  and  _546
REMARK  228  A    between atoms: _545  and  _548
REMARK  229  A    between atoms: _548  and  _549
REMARK  230  A    between atoms: _552  and  _554
REMARK  231  A    between atoms: _554  and  _555
REMARK  232  A    between atoms: _557  and  _559
REMARK  233  A    between atoms: _559  and  _560
REMARK  234  A    between atoms: _559  and  _562
REMARK  235  A    between atoms: _562  and  _563
REMARK  236  A    between atoms: _566  and  _568
REMARK  237  A    between atoms: _568  and  _569
REMARK  238  A    between atoms: _568  and  _571
REMARK  239  A    between atoms: _571  and  _572
REMARK  240  A    between atoms: _577  and  _579
REMARK  241  A    between atoms: _579  and  _580
REMARK  242  A    between atoms: _579  and  _582
REMARK  243  A    between atoms: _582  and  _583
REMARK  244  A    between atoms: _586  and  _588
REMARK  245  A    between atoms: _588  and  _589
REMARK  246  A    between atoms: _591  and  _593
REMARK  247  A    between atoms: _593  and  _594
REMARK  248  A    between atoms: _593  and  _596
REMARK  249  A    between atoms: _596  and  _597
REMARK  250  A    between atoms: _600  and  _602
REMARK  251  A    between atoms: _602  and  _603
REMARK  252  A    between atoms: _602  and  _605
REMARK                            x       y       z     vdW  Elec       q    Type
REMARK                         _______ _______ _______ _____ _____    ______ ____
ROOT
ATOM      1  O   HOH     1      -2.492  29.795  17.021  0.00  0.00    +0.000 OA
ENDROOT
TORSDOF 0
REMARK  Name = ../refined-set-2016/3uri/3uri_pocket.pdb
REMARK  252 active torsions:
REMARK  status: ('A' for Active; 'I' for Inactive)
REMARK    1  A    between atoms: _1  and  _3
REMARK    2  A    between atoms: _3  and  _4
REMARK    3  A    between atoms: _3  and  _6
REMARK    4  A    between atoms: _6  and  _7
REMARK    5  A    between atoms: _10  and  _12
REMARK    6  A    between atoms: _12  and  _13
REMARK    7  A    between atoms: _12  and  _15
REMARK    8  A    between atoms: _15  and  _16
REMARK    9  A    between atoms: _19  and  _21
REMARK   10  A    between atoms: _21  and  _22
REMARK   11  A    between atoms: _21  and  _24
REMARK   12  A    between atoms: _24  and  _25
REMARK   13  A    between atoms: _28  and  _30
REMARK   14  A    between atoms: _30  and  _31
REMARK   15  A    between atoms: _30  and  _33
REMARK   16  A    between atoms: _33  and  _34
REMARK   17  A    between atoms: _37  and  _39
REMARK   18  A    between atoms: _39  and  _40
REMARK   19  A    between atoms: _39  and  _42
REMARK   20  A    between atoms: _42  and  _43
REMARK   21  A    between atoms: _46  and  _48
REMARK   22  A    between atoms: _48  and  _49
REMARK   23  A    between atoms: _52  and  _54
REMARK   24  A    between atoms: _54  and  _55
REMARK   25  A    between atoms: _54  and  _57
REMARK   26  A    between atoms: _57  and  _58
REMARK   27  A    between atoms: _63  and  _64
REMARK   28  A    between atoms: _66  and  _68
REMARK   29  A    between atoms: _68  and  _69
REMARK   30  A    between atoms: _68  and  _71
REMARK   31  A    between atoms: _71  and  _72
REMARK   32  A    between atoms: _75  and  _77
REMARK   33  A    between atoms: _77  and  _78
REMARK   34  A    between atoms: _77  and  _80
REMARK   35  A    between atoms: _80  and  _81
REMARK   36  A    between atoms: _84  and  _86
REMARK   37  A    between atoms: _86  and  _87
REMARK   38  A    between atoms: _86  and  _89
REMARK   39  A    between atoms: _89  and  _90
REMARK   40  A    between atoms: _96  and  _98
REMARK   41  A    between atoms: _98  and  _99
REMARK   42  A    between atoms: _98  and  _101
REMARK   43  A    between atoms: _101  and  _102
REMARK   44  A    between atoms: _105  and  _107
REMARK   45  A    between atoms: _107  and  _108
REMARK   46  A    between atoms: _107  and  _110
REMARK   47  A    between atoms: _110  and  _111
REMARK   48  A    between atoms: _114  and  _116
REMARK   49  A    between atoms: _116  and  _117
REMARK   50  A    between atoms: _119  and  _121
REMARK   51  A    between atoms: _121  and  _122
REMARK   52  A    between atoms: _121  and  _124
REMARK   53  A    between atoms: _124  and  _125
REMARK   54  A    between atoms: _127  and  _129
REMARK   55  A    between atoms: _129  and  _130
REMARK   56  A    between atoms: _129  and  _132
REMARK   57  A    between atoms: _132  and  _133
REMARK   58  A    between atoms: _135  and  _137
REMARK   59  A    between atoms: _137  and  _138
REMARK   60  A    between atoms: _137  and  _140
REMARK   61  A    between atoms: _140  and  _141
REMARK   62  A    between atoms: _144  and  _146
REMARK   63  A    between atoms: _146  and  _147
REMARK   64  A    between atoms: _146  and  _149
REMARK   65  A    between atoms: _149  and  _150
REMARK   66  A    between atoms: _160  and  _162
REMARK   67  A    between atoms: _162  and  _163
REMARK   68  A    between atoms: _162  and  _165
REMARK   69  A    between atoms: _165  and  _166
REMARK   70  A    between atoms: _168  and  _170
REMARK   71  A    between atoms: _170  and  _171
REMARK   72  A    between atoms: _170  and  _173
REMARK   73  A    between atoms: _173  and  _174
REMARK   74  A    between atoms: _177  and  _179
REMARK   75  A    between atoms: _179  and  _180
REMARK   76  A    between atoms: _179  and  _182
REMARK   77  A    between atoms: _182  and  _183
REMARK   78  A    between atoms: _185  and  _187
REMARK   79  A    between atoms: _187  and  _188
REMARK   80  A    between atoms: _187  and  _190
REMARK   81  A    between atoms: _190  and  _191
REMARK   82  A    between atoms: _196  and  _197
REMARK   83  A    between atoms: _199  and  _201
REMARK   84  A    between atoms: _201  and  _202
REMARK   85  A    between atoms: _204  and  _206
REMARK   86  A    between atoms: _206  and  _207
REMARK   87  A    between atoms: _206  and  _209
REMARK   88  A    between atoms: _209  and  _210
REMARK   89  A    between atoms: _213  and  _215
REMARK   90  A    between atoms: _215  and  _216
REMARK   91  A    between atoms: _218  and  _220
REMARK   92  A    between atoms: _220  and  _221
REMARK   93  A    between atoms: _220  and  _223
REMARK   94  A    between atoms: _223  and  _224
REMARK   95  A    between atoms: _226  and  _228
REMARK   96  A    between atoms: _228  and  _229
REMARK   97  A    between atoms: _228  and  _231
REMARK   98  A    between atoms: _231  and  _232
REMARK   99  A    between atoms: _234  and  _236
REMARK  100  A    between atoms: _236  and  _237
REMARK  101  A    between atoms: _236  and  _239
REMARK  102  A    between atoms: _239  and  _240
REMARK  103  A    between atoms: _242  and  _244
REMARK  104  A    between atoms: _244  and  _245
REMARK  105  A    between atoms: _244  and  _247
REMARK  106  A    between atoms: _247  and  _248
REMARK  107  A    between atoms: _250  and  _252
REMARK  108  A    between atoms: _252  and  _253
REMARK  109  A    between atoms: _252  and  _255
REMARK  110  A    between atoms: _255  and  _256
REMARK  111  A    between atoms: _262  and  _264
REMARK  112  A    between atoms: _264  and  _265
REMARK  113  A    between atoms: _264  and  _267
REMARK  114  A    between atoms: _267  and  _268
REMARK  115  A    between atoms: _268  and  _269
REMARK  116  A    between atoms: _272  and  _274
REMARK  117  A    between atoms: _274  and  _275
REMARK  118  A    between atoms: _274  and  _277
REMARK  119  A    between atoms: _277  and  _278
REMARK  120  A    between atoms: _281  and  _283
REMARK  121  A    between atoms: _283  and  _284
REMARK  122  A    between atoms: _283  and  _286
REMARK  123  A    between atoms: _286  and  _287
REMARK  124  A    between atoms: _290  and  _292
REMARK  125  A    between atoms: _292  and  _293
REMARK  126  A    between atoms: _292  and  _295
REMARK  127  A    between atoms: _295  and  _296
REMARK  128  A    between atoms: _299  and  _301
REMARK  129  A    between atoms: _301  and  _302
REMARK  130  A    between atoms: _304  and  _306
REMARK  131  A    between atoms: _306  and  _307
REMARK  132  A    between atoms: _306  and  _309
REMARK  133  A    between atoms: _309  and  _310
REMARK  134  A    between atoms: _313  and  _315
REMARK  135  A    between atoms: _315  and  _316
REMARK  136  A    between atoms: _315  and  _318
REMARK  137  A    between atoms: _318  and  _319
REMARK  138  A    between atoms: _322  and  _324
REMARK  139  A    between atoms: _324  and  _325
REMARK  140  A    between atoms: _328  and  _330
REMARK  141  A    between atoms: _330  and  _331
REMARK  142  A    between atoms: _330  and  _333
REMARK  143  A    between atoms: _333  and  _334
REMARK  144  A    between atoms: _337  and  _339
REMARK  145  A    between atoms: _339  and  _340
REMARK  146  A    between atoms: _339  and  _342
REMARK  147  A    between atoms: _342  and  _343
REMARK  148  A    between atoms: _348  and  _350
REMARK  149  A    between atoms: _350  and  _351
REMARK  150  A    between atoms: _350  and  _353
REMARK  151  A    between atoms: _353  and  _354
REMARK  152  A    between atoms: _357  and  _359
REMARK  153  A    between atoms: _359  and  _360
REMARK  154  A    between atoms: _359  and  _362
REMARK  155  A    between atoms: _362  and  _363
REMARK  156  A    between atoms: _363  and  _364
REMARK  157  A    between atoms: _369  and  _371
REMARK  158  A    between atoms: _371  and  _372
REMARK  159  A    between atoms: _374  and  _376
REMARK  160  A    between atoms: _376  and  _377
REMARK  161  A    between atoms: _376  and  _379
REMARK  162  A    between atoms: _379  and  _380
REMARK  163  A    between atoms: _386  and  _388
REMARK  164  A    between atoms: _388  and  _389
REMARK  165  A    between atoms: _388  and  _391
REMARK  166  A    between atoms: _391  and  _392
REMARK  167  A    between atoms: _395  and  _397
REMARK  168  A    between atoms: _397  and  _398
REMARK  169  A    between atoms: _401  and  _403
REMARK  170  A    between atoms: _403  and  _404
REMARK  171  A    between atoms: _403  and  _406
REMARK  172  A    between atoms: _406  and  _407
REMARK  173  A    between atoms: _410  and  _412
REMARK  174  A    between atoms: _412  and  _413
REMARK  175  A    between atoms: _412  and  _415
REMARK  176  A    between atoms: _415  and  _416
REMARK  177  A    between atoms: _419  and  _421
REMARK  178  A    between atoms: _421  and  _422
REMARK  179  A    between atoms: _424  and  _426
REMARK  180  A    between atoms: _426  and  _427
REMARK  181  A    between atoms: _426  and  _429
REMARK  182  A    between atoms: _429  and  _430
REMARK  183  A    between atoms: _433  and  _435
REMARK  184  A    between atoms: _435  and  _436
REMARK  185  A    between atoms: _435  and  _438
REMARK  186  A    between atoms: _438  and  _439
REMARK  187  A    between atoms: _442  and  _444
REMARK  188  A    between atoms: _444  and  _445
REMARK  189  A    between atoms: _444  and  _447
REMARK  190  A    between atoms: _447  and  _448
REMARK  191  A    between atoms: _451  and  _453
REMARK  192  A    between atoms: _453  and  _454
REMARK  193  A    between atoms: _453  and  _456
REMARK  194  A    between atoms: _456  and  _457
REMARK  195  A    between atoms: _460  and  _462
REMARK  196  A    between atoms: _462  and  _463
REMARK  197  A    between atoms: _462  and  _465
REMARK  198  A    between atoms: _465  and  _466
REMARK  199  A    between atoms: _471  and  _472
REMARK  200  A    between atoms: _474  and  _476
REMARK  201  A    between atoms: _476  and  _477
REMARK  202  A    between atoms: _476  and  _479
REMARK  203  A    between atoms: _482  and  _484
REMARK  204  A    between atoms: _484  and  _485
REMARK  205  A    between atoms: _487  and  _489
REMARK  206  A    between atoms: _489  and  _490
REMARK  207  A    between atoms: _489  and  _492
REMARK  208  A    between atoms: _492  and  _493
REMARK  209  A    between atoms: _499  and  _501
REMARK  210  A    between atoms: _501  and  _502
REMARK  211  A    between atoms: _504  and  _506
REMARK  212  A    between atoms: _506  and  _507
REMARK  213  A    between atoms: _506  and  _509
REMARK  214  A    between atoms: _509  and  _510
REMARK  215  A    between atoms: _516  and  _518
REMARK  216  A    between atoms: _518  and  _519
REMARK  217  A    between atoms: _521  and  _523
REMARK  218  A    between atoms: _523  and  _524
REMARK  219  A    between atoms: _526  and  _528
REMARK  220  A    between atoms: _528  and  _529
REMARK  221  A    between atoms: _528  and  _531
REMARK  222  A    between atoms: _531  and  _532
REMARK  223  A    between atoms: _532  and  _533
REMARK  224  A    between atoms: _538  and  _540
REMARK  225  A    between atoms: _540  and  _541
REMARK  226  A    between atoms: _543  and  _545
REMARK  227  A    between atoms: _545  and  _546
REMARK  228  A    between atoms: _545  and  _548
REMARK  229  A    between atoms: _548  and  _549
REMARK  230  A    between atoms: _552  and  _554
REMARK  231  A    between atoms: _554  and  _555
REMARK  232  A    between atoms: _557  and  _559
REMARK  233  A    between atoms: _559  and  _560
REMARK  234  A    between atoms: _559  and  _562
REMARK  235  A    between atoms: _562  and  _563
REMARK  236  A    between atoms: _566  and  _568
REMARK  237  A    between atoms: _568  and  _569
REMARK  238  A    between atoms: _568  and  _571
REMARK  239  A    between atoms: _571  and  _572
REMARK  240  A    between atoms: _577  and  _579
REMARK  241  A    between atoms: _579  and  _580
REMARK  242  A    between atoms: _579  and  _582
REMARK  243  A    between atoms: _582  and  _583
REMARK  244  A    between atoms: _586  and  _588
REMARK  245  A    between atoms: _588  and  _589
REMARK  246  A    between atoms: _591  and  _593
REMARK  247  A    between atoms: _593  and  _594
REMARK  248  A    between atoms: _593  and  _596
REMARK  249  A    between atoms: _596  and  _597
REMARK  250  A    between atoms: _600  and  _602
REMARK  251  A    between atoms: _602  and  _603
REMARK  252  A    between atoms: _602  and  _605
REMARK                            x       y       z     vdW  Elec       q    Type
REMARK                         _______ _______ _______ _____ _____    ______ ____
ROOT
ATOM      1  O   HOH     1      -2.587  25.477  20.167  0.00  0.00    +0.000 OA
ENDROOT
TORSDOF 0
REMARK  Name = ../refined-set-2016/3uri/3uri_pocket.pdb
REMARK  252 active torsions:
REMARK  status: ('A' for Active; 'I' for Inactive)
REMARK    1  A    between atoms: _1  and  _3
REMARK    2  A    between atoms: _3  and  _4
REMARK    3  A    between atoms: _3  and  _6
REMARK    4  A    between atoms: _6  and  _7
REMARK    5  A    between atoms: _10  and  _12
REMARK    6  A    between atoms: _12  and  _13
REMARK    7  A    between atoms: _12  and  _15
REMARK    8  A    between atoms: _15  and  _16
REMARK    9  A    between atoms: _19  and  _21
REMARK   10  A    between atoms: _21  and  _22
REMARK   11  A    between atoms: _21  and  _24
REMARK   12  A    between atoms: _24  and  _25
REMARK   13  A    between atoms: _28  and  _30
REMARK   14  A    between atoms: _30  and  _31
REMARK   15  A    between atoms: _30  and  _33
REMARK   16  A    between atoms: _33  and  _34
REMARK   17  A    between atoms: _37  and  _39
REMARK   18  A    between atoms: _39  and  _40
REMARK   19  A    between atoms: _39  and  _42
REMARK   20  A    between atoms: _42  and  _43
REMARK   21  A    between atoms: _46  and  _48
REMARK   22  A    between atoms: _48  and  _49
REMARK   23  A    between atoms: _52  and  _54
REMARK   24  A    between atoms: _54  and  _55
REMARK   25  A    between atoms: _54  and  _57
REMARK   26  A    between atoms: _57  and  _58
REMARK   27  A    between atoms: _63  and  _64
REMARK   28  A    between atoms: _66  and  _68
REMARK   29  A    between atoms: _68  and  _69
REMARK   30  A    between atoms: _68  and  _71
REMARK   31  A    between atoms: _71  and  _72
REMARK   32  A    between atoms: _75  and  _77
REMARK   33  A    between atoms: _77  and  _78
REMARK   34  A    between atoms: _77  and  _80
REMARK   35  A    between atoms: _80  and  _81
REMARK   36  A    between atoms: _84  and  _86
REMARK   37  A    between atoms: _86  and  _87
REMARK   38  A    between atoms: _86  and  _89
REMARK   39  A    between atoms: _89  and  _90
REMARK   40  A    between atoms: _96  and  _98
REMARK   41  A    between atoms: _98  and  _99
REMARK   42  A    between atoms: _98  and  _101
REMARK   43  A    between atoms: _101  and  _102
REMARK   44  A    between atoms: _105  and  _107
REMARK   45  A    between atoms: _107  and  _108
REMARK   46  A    between atoms: _107  and  _110
REMARK   47  A    between atoms: _110  and  _111
REMARK   48  A    between atoms: _114  and  _116
REMARK   49  A    between atoms: _116  and  _117
REMARK   50  A    between atoms: _119  and  _121
REMARK   51  A    between atoms: _121  and  _122
REMARK   52  A    between atoms: _121  and  _124
REMARK   53  A    between atoms: _124  and  _125
REMARK   54  A    between atoms: _127  and  _129
REMARK   55  A    between atoms: _129  and  _130
REMARK   56  A    between atoms: _129  and  _132
REMARK   57  A    between atoms: _132  and  _133
REMARK   58  A    between atoms: _135  and  _137
REMARK   59  A    between atoms: _137  and  _138
REMARK   60  A    between atoms: _137  and  _140
REMARK   61  A    between atoms: _140  and  _141
REMARK   62  A    between atoms: _144  and  _146
REMARK   63  A    between atoms: _146  and  _147
REMARK   64  A    between atoms: _146  and  _149
REMARK   65  A    between atoms: _149  and  _150
REMARK   66  A    between atoms: _160  and  _162
REMARK   67  A    between atoms: _162  and  _163
REMARK   68  A    between atoms: _162  and  _165
REMARK   69  A    between atoms: _165  and  _166
REMARK   70  A    between atoms: _168  and  _170
REMARK   71  A    between atoms: _170  and  _171
REMARK   72  A    between atoms: _170  and  _173
REMARK   73  A    between atoms: _173  and  _174
REMARK   74  A    between atoms: _177  and  _179
REMARK   75  A    between atoms: _179  and  _180
REMARK   76  A    between atoms: _179  and  _182
REMARK   77  A    between atoms: _182  and  _183
REMARK   78  A    between atoms: _185  and  _187
REMARK   79  A    between atoms: _187  and  _188
REMARK   80  A    between atoms: _187  and  _190
REMARK   81  A    between atoms: _190  and  _191
REMARK   82  A    between atoms: _196  and  _197
REMARK   83  A    between atoms: _199  and  _201
REMARK   84  A    between atoms: _201  and  _202
REMARK   85  A    between atoms: _204  and  _206
REMARK   86  A    between atoms: _206  and  _207
REMARK   87  A    between atoms: _206  and  _209
REMARK   88  A    between atoms: _209  and  _210
REMARK   89  A    between atoms: _213  and  _215
REMARK   90  A    between atoms: _215  and  _216
REMARK   91  A    between atoms: _218  and  _220
REMARK   92  A    between atoms: _220  and  _221
REMARK   93  A    between atoms: _220  and  _223
REMARK   94  A    between atoms: _223  and  _224
REMARK   95  A    between atoms: _226  and  _228
REMARK   96  A    between atoms: _228  and  _229
REMARK   97  A    between atoms: _228  and  _231
REMARK   98  A    between atoms: _231  and  _232
REMARK   99  A    between atoms: _234  and  _236
REMARK  100  A    between atoms: _236  and  _237
REMARK  101  A    between atoms: _236  and  _239
REMARK  102  A    between atoms: _239  and  _240
REMARK  103  A    between atoms: _242  and  _244
REMARK  104  A    between atoms: _244  and  _245
REMARK  105  A    between atoms: _244  and  _247
REMARK  106  A    between atoms: _247  and  _248
REMARK  107  A    between atoms: _250  and  _252
REMARK  108  A    between atoms: _252  and  _253
REMARK  109  A    between atoms: _252  and  _255
REMARK  110  A    between atoms: _255  and  _256
REMARK  111  A    between atoms: _262  and  _264
REMARK  112  A    between atoms: _264  and  _265
REMARK  113  A    between atoms: _264  and  _267
REMARK  114  A    between atoms: _267  and  _268
REMARK  115  A    between atoms: _268  and  _269
REMARK  116  A    between atoms: _272  and  _274
REMARK  117  A    between atoms: _274  and  _275
REMARK  118  A    between atoms: _274  and  _277
REMARK  119  A    between atoms: _277  and  _278
REMARK  120  A    between atoms: _281  and  _283
REMARK  121  A    between atoms: _283  and  _284
REMARK  122  A    between atoms: _283  and  _286
REMARK  123  A    between atoms: _286  and  _287
REMARK  124  A    between atoms: _290  and  _292
REMARK  125  A    between atoms: _292  and  _293
REMARK  126  A    between atoms: _292  and  _295
REMARK  127  A    between atoms: _295  and  _296
REMARK  128  A    between atoms: _299  and  _301
REMARK  129  A    between atoms: _301  and  _302
REMARK  130  A    between atoms: _304  and  _306
REMARK  131  A    between atoms: _306  and  _307
REMARK  132  A    between atoms: _306  and  _309
REMARK  133  A    between atoms: _309  and  _310
REMARK  134  A    between atoms: _313  and  _315
REMARK  135  A    between atoms: _315  and  _316
REMARK  136  A    between atoms: _315  and  _318
REMARK  137  A    between atoms: _318  and  _319
REMARK  138  A    between atoms: _322  and  _324
REMARK  139  A    between atoms: _324  and  _325
REMARK  140  A    between atoms: _328  and  _330
REMARK  141  A    between atoms: _330  and  _331
REMARK  142  A    between atoms: _330  and  _333
REMARK  143  A    between atoms: _333  and  _334
REMARK  144  A    between atoms: _337  and  _339
REMARK  145  A    between atoms: _339  and  _340
REMARK  146  A    between atoms: _339  and  _342
REMARK  147  A    between atoms: _342  and  _343
REMARK  148  A    between atoms: _348  and  _350
REMARK  149  A    between atoms: _350  and  _351
REMARK  150  A    between atoms: _350  and  _353
REMARK  151  A    between atoms: _353  and  _354
REMARK  152  A    between atoms: _357  and  _359
REMARK  153  A    between atoms: _359  and  _360
REMARK  154  A    between atoms: _359  and  _362
REMARK  155  A    between atoms: _362  and  _363
REMARK  156  A    between atoms: _363  and  _364
REMARK  157  A    between atoms: _369  and  _371
REMARK  158  A    between atoms: _371  and  _372
REMARK  159  A    between atoms: _374  and  _376
REMARK  160  A    between atoms: _376  and  _377
REMARK  161  A    between atoms: _376  and  _379
REMARK  162  A    between atoms: _379  and  _380
REMARK  163  A    between atoms: _386  and  _388
REMARK  164  A    between atoms: _388  and  _389
REMARK  165  A    between atoms: _388  and  _391
REMARK  166  A    between atoms: _391  and  _392
REMARK  167  A    between atoms: _395  and  _397
REMARK  168  A    between atoms: _397  and  _398
REMARK  169  A    between atoms: _401  and  _403
REMARK  170  A    between atoms: _403  and  _404
REMARK  171  A    between atoms: _403  and  _406
REMARK  172  A    between atoms: _406  and  _407
REMARK  173  A    between atoms: _410  and  _412
REMARK  174  A    between atoms: _412  and  _413
REMARK  175  A    between atoms: _412  and  _415
REMARK  176  A    between atoms: _415  and  _416
REMARK  177  A    between atoms: _419  and  _421
REMARK  178  A    between atoms: _421  and  _422
REMARK  179  A    between atoms: _424  and  _426
REMARK  180  A    between atoms: _426  and  _427
REMARK  181  A    between atoms: _426  and  _429
REMARK  182  A    between atoms: _429  and  _430
REMARK  183  A    between atoms: _433  and  _435
REMARK  184  A    between atoms: _435  and  _436
REMARK  185  A    between atoms: _435  and  _438
REMARK  186  A    between atoms: _438  and  _439
REMARK  187  A    between atoms: _442  and  _444
REMARK  188  A    between atoms: _444  and  _445
REMARK  189  A    between atoms: _444  and  _447
REMARK  190  A    between atoms: _447  and  _448
REMARK  191  A    between atoms: _451  and  _453
REMARK  192  A    between atoms: _453  and  _454
REMARK  193  A    between atoms: _453  and  _456
REMARK  194  A    between atoms: _456  and  _457
REMARK  195  A    between atoms: _460  and  _462
REMARK  196  A    between atoms: _462  and  _463
REMARK  197  A    between atoms: _462  and  _465
REMARK  198  A    between atoms: _465  and  _466
REMARK  199  A    between atoms: _471  and  _472
REMARK  200  A    between atoms: _474  and  _476
REMARK  201  A    between atoms: _476  and  _477
REMARK  202  A    between atoms: _476  and  _479
REMARK  203  A    between atoms: _482  and  _484
REMARK  204  A    between atoms: _484  and  _485
REMARK  205  A    between atoms: _487  and  _489
REMARK  206  A    between atoms: _489  and  _490
REMARK  207  A    between atoms: _489  and  _492
REMARK  208  A    between atoms: _492  and  _493
REMARK  209  A    between atoms: _499  and  _501
REMARK  210  A    between atoms: _501  and  _502
REMARK  211  A    between atoms: _504  and  _506
REMARK  212  A    between atoms: _506  and  _507
REMARK  213  A    between atoms: _506  and  _509
REMARK  214  A    between atoms: _509  and  _510
REMARK  215  A    between atoms: _516  and  _518
REMARK  216  A    between atoms: _518  and  _519
REMARK  217  A    between atoms: _521  and  _523
REMARK  218  A    between atoms: _523  and  _524
REMARK  219  A    between atoms: _526  and  _528
REMARK  220  A    between atoms: _528  and  _529
REMARK  221  A    between atoms: _528  and  _531
REMARK  222  A    between atoms: _531  and  _532
REMARK  223  A    between atoms: _532  and  _533
REMARK  224  A    between atoms: _538  and  _540
REMARK  225  A    between atoms: _540  and  _541
REMARK  226  A    between atoms: _543  and  _545
REMARK  227  A    between atoms: _545  and  _546
REMARK  228  A    between atoms: _545  and  _548
REMARK  229  A    between atoms: _548  and  _549
REMARK  230  A    between atoms: _552  and  _554
REMARK  231  A    between atoms: _554  and  _555
REMARK  232  A    between atoms: _557  and  _559
REMARK  233  A    between atoms: _559  and  _560
REMARK  234  A    between atoms: _559  and  _562
REMARK  235  A    between atoms: _562  and  _563
REMARK  236  A    between atoms: _566  and  _568
REMARK  237  A    between atoms: _568  and  _569
REMARK  238  A    between atoms: _568  and  _571
REMARK  239  A    between atoms: _571  and  _572
REMARK  240  A    between atoms: _577  and  _579
REMARK  241  A    between atoms: _579  and  _580
REMARK  242  A    between atoms: _579  and  _582
REMARK  243  A    between atoms: _582  and  _583
REMARK  244  A    between atoms: _586  and  _588
REMARK  245  A    between atoms: _588  and  _589
REMARK  246  A    between atoms: _591  and  _593
REMARK  247  A    between atoms: _593  and  _594
REMARK  248  A    between atoms: _593  and  _596
REMARK  249  A    between atoms: _596  and  _597
REMARK  250  A    between atoms: _600  and  _602
REMARK  251  A    between atoms: _602  and  _603
REMARK  252  A    between atoms: _602  and  _605
REMARK                            x       y       z     vdW  Elec       q    Type
REMARK                         _______ _______ _______ _____ _____    ______ ____
ROOT
ATOM      1  O   HOH     1       0.583  23.744  23.769  0.00  0.00    +0.000 OA
ENDROOT
TORSDOF 0
REMARK  Name = ../refined-set-2016/3uri/3uri_pocket.pdb
REMARK  252 active torsions:
REMARK  status: ('A' for Active; 'I' for Inactive)
REMARK    1  A    between atoms: _1  and  _3
REMARK    2  A    between atoms: _3  and  _4
REMARK    3  A    between atoms: _3  and  _6
REMARK    4  A    between atoms: _6  and  _7
REMARK    5  A    between atoms: _10  and  _12
REMARK    6  A    between atoms: _12  and  _13
REMARK    7  A    between atoms: _12  and  _15
REMARK    8  A    between atoms: _15  and  _16
REMARK    9  A    between atoms: _19  and  _21
REMARK   10  A    between atoms: _21  and  _22
REMARK   11  A    between atoms: _21  and  _24
REMARK   12  A    between atoms: _24  and  _25
REMARK   13  A    between atoms: _28  and  _30
REMARK   14  A    between atoms: _30  and  _31
REMARK   15  A    between atoms: _30  and  _33
REMARK   16  A    between atoms: _33  and  _34
REMARK   17  A    between atoms: _37  and  _39
REMARK   18  A    between atoms: _39  and  _40
REMARK   19  A    between atoms: _39  and  _42
REMARK   20  A    between atoms: _42  and  _43
REMARK   21  A    between atoms: _46  and  _48
REMARK   22  A    between atoms: _48  and  _49
REMARK   23  A    between atoms: _52  and  _54
REMARK   24  A    between atoms: _54  and  _55
REMARK   25  A    between atoms: _54  and  _57
REMARK   26  A    between atoms: _57  and  _58
REMARK   27  A    between atoms: _63  and  _64
REMARK   28  A    between atoms: _66  and  _68
REMARK   29  A    between atoms: _68  and  _69
REMARK   30  A    between atoms: _68  and  _71
REMARK   31  A    between atoms: _71  and  _72
REMARK   32  A    between atoms: _75  and  _77
REMARK   33  A    between atoms: _77  and  _78
REMARK   34  A    between atoms: _77  and  _80
REMARK   35  A    between atoms: _80  and  _81
REMARK   36  A    between atoms: _84  and  _86
REMARK   37  A    between atoms: _86  and  _87
REMARK   38  A    between atoms: _86  and  _89
REMARK   39  A    between atoms: _89  and  _90
REMARK   40  A    between atoms: _96  and  _98
REMARK   41  A    between atoms: _98  and  _99
REMARK   42  A    between atoms: _98  and  _101
REMARK   43  A    between atoms: _101  and  _102
REMARK   44  A    between atoms: _105  and  _107
REMARK   45  A    between atoms: _107  and  _108
REMARK   46  A    between atoms: _107  and  _110
REMARK   47  A    between atoms: _110  and  _111
REMARK   48  A    between atoms: _114  and  _116
REMARK   49  A    between atoms: _116  and  _117
REMARK   50  A    between atoms: _119  and  _121
REMARK   51  A    between atoms: _121  and  _122
REMARK   52  A    between atoms: _121  and  _124
REMARK   53  A    between atoms: _124  and  _125
REMARK   54  A    between atoms: _127  and  _129
REMARK   55  A    between atoms: _129  and  _130
REMARK   56  A    between atoms: _129  and  _132
REMARK   57  A    between atoms: _132  and  _133
REMARK   58  A    between atoms: _135  and  _137
REMARK   59  A    between atoms: _137  and  _138
REMARK   60  A    between atoms: _137  and  _140
REMARK   61  A    between atoms: _140  and  _141
REMARK   62  A    between atoms: _144  and  _146
REMARK   63  A    between atoms: _146  and  _147
REMARK   64  A    between atoms: _146  and  _149
REMARK   65  A    between atoms: _149  and  _150
REMARK   66  A    between atoms: _160  and  _162
REMARK   67  A    between atoms: _162  and  _163
REMARK   68  A    between atoms: _162  and  _165
REMARK   69  A    between atoms: _165  and  _166
REMARK   70  A    between atoms: _168  and  _170
REMARK   71  A    between atoms: _170  and  _171
REMARK   72  A    between atoms: _170  and  _173
REMARK   73  A    between atoms: _173  and  _174
REMARK   74  A    between atoms: _177  and  _179
REMARK   75  A    between atoms: _179  and  _180
REMARK   76  A    between atoms: _179  and  _182
REMARK   77  A    between atoms: _182  and  _183
REMARK   78  A    between atoms: _185  and  _187
REMARK   79  A    between atoms: _187  and  _188
REMARK   80  A    between atoms: _187  and  _190
REMARK   81  A    between atoms: _190  and  _191
REMARK   82  A    between atoms: _196  and  _197
REMARK   83  A    between atoms: _199  and  _201
REMARK   84  A    between atoms: _201  and  _202
REMARK   85  A    between atoms: _204  and  _206
REMARK   86  A    between atoms: _206  and  _207
REMARK   87  A    between atoms: _206  and  _209
REMARK   88  A    between atoms: _209  and  _210
REMARK   89  A    between atoms: _213  and  _215
REMARK   90  A    between atoms: _215  and  _216
REMARK   91  A    between atoms: _218  and  _220
REMARK   92  A    between atoms: _220  and  _221
REMARK   93  A    between atoms: _220  and  _223
REMARK   94  A    between atoms: _223  and  _224
REMARK   95  A    between atoms: _226  and  _228
REMARK   96  A    between atoms: _228  and  _229
REMARK   97  A    between atoms: _228  and  _231
REMARK   98  A    between atoms: _231  and  _232
REMARK   99  A    between atoms: _234  and  _236
REMARK  100  A    between atoms: _236  and  _237
REMARK  101  A    between atoms: _236  and  _239
REMARK  102  A    between atoms: _239  and  _240
REMARK  103  A    between atoms: _242  and  _244
REMARK  104  A    between atoms: _244  and  _245
REMARK  105  A    between atoms: _244  and  _247
REMARK  106  A    between atoms: _247  and  _248
REMARK  107  A    between atoms: _250  and  _252
REMARK  108  A    between atoms: _252  and  _253
REMARK  109  A    between atoms: _252  and  _255
REMARK  110  A    between atoms: _255  and  _256
REMARK  111  A    between atoms: _262  and  _264
REMARK  112  A    between atoms: _264  and  _265
REMARK  113  A    between atoms: _264  and  _267
REMARK  114  A    between atoms: _267  and  _268
REMARK  115  A    between atoms: _268  and  _269
REMARK  116  A    between atoms: _272  and  _274
REMARK  117  A    between atoms: _274  and  _275
REMARK  118  A    between atoms: _274  and  _277
REMARK  119  A    between atoms: _277  and  _278
REMARK  120  A    between atoms: _281  and  _283
REMARK  121  A    between atoms: _283  and  _284
REMARK  122  A    between atoms: _283  and  _286
REMARK  123  A    between atoms: _286  and  _287
REMARK  124  A    between atoms: _290  and  _292
REMARK  125  A    between atoms: _292  and  _293
REMARK  126  A    between atoms: _292  and  _295
REMARK  127  A    between atoms: _295  and  _296
REMARK  128  A    between atoms: _299  and  _301
REMARK  129  A    between atoms: _301  and  _302
REMARK  130  A    between atoms: _304  and  _306
REMARK  131  A    between atoms: _306  and  _307
REMARK  132  A    between atoms: _306  and  _309
REMARK  133  A    between atoms: _309  and  _310
REMARK  134  A    between atoms: _313  and  _315
REMARK  135  A    between atoms: _315  and  _316
REMARK  136  A    between atoms: _315  and  _318
REMARK  137  A    between atoms: _318  and  _319
REMARK  138  A    between atoms: _322  and  _324
REMARK  139  A    between atoms: _324  and  _325
REMARK  140  A    between atoms: _328  and  _330
REMARK  141  A    between atoms: _330  and  _331
REMARK  142  A    between atoms: _330  and  _333
REMARK  143  A    between atoms: _333  and  _334
REMARK  144  A    between atoms: _337  and  _339
REMARK  145  A    between atoms: _339  and  _340
REMARK  146  A    between atoms: _339  and  _342
REMARK  147  A    between atoms: _342  and  _343
REMARK  148  A    between atoms: _348  and  _350
REMARK  149  A    between atoms: _350  and  _351
REMARK  150  A    between atoms: _350  and  _353
REMARK  151  A    between atoms: _353  and  _354
REMARK  152  A    between atoms: _357  and  _359
REMARK  153  A    between atoms: _359  and  _360
REMARK  154  A    between atoms: _359  and  _362
REMARK  155  A    between atoms: _362  and  _363
REMARK  156  A    between atoms: _363  and  _364
REMARK  157  A    between atoms: _369  and  _371
REMARK  158  A    between atoms: _371  and  _372
REMARK  159  A    between atoms: _374  and  _376
REMARK  160  A    between atoms: _376  and  _377
REMARK  161  A    between atoms: _376  and  _379
REMARK  162  A    between atoms: _379  and  _380
REMARK  163  A    between atoms: _386  and  _388
REMARK  164  A    between atoms: _388  and  _389
REMARK  165  A    between atoms: _388  and  _391
REMARK  166  A    between atoms: _391  and  _392
REMARK  167  A    between atoms: _395  and  _397
REMARK  168  A    between atoms: _397  and  _398
REMARK  169  A    between atoms: _401  and  _403
REMARK  170  A    between atoms: _403  and  _404
REMARK  171  A    between atoms: _403  and  _406
REMARK  172  A    between atoms: _406  and  _407
REMARK  173  A    between atoms: _410  and  _412
REMARK  174  A    between atoms: _412  and  _413
REMARK  175  A    between atoms: _412  and  _415
REMARK  176  A    between atoms: _415  and  _416
REMARK  177  A    between atoms: _419  and  _421
REMARK  178  A    between atoms: _421  and  _422
REMARK  179  A    between atoms: _424  and  _426
REMARK  180  A    between atoms: _426  and  _427
REMARK  181  A    between atoms: _426  and  _429
REMARK  182  A    between atoms: _429  and  _430
REMARK  183  A    between atoms: _433  and  _435
REMARK  184  A    between atoms: _435  and  _436
REMARK  185  A    between atoms: _435  and  _438
REMARK  186  A    between atoms: _438  and  _439
REMARK  187  A    between atoms: _442  and  _444
REMARK  188  A    between atoms: _444  and  _445
REMARK  189  A    between atoms: _444  and  _447
REMARK  190  A    between atoms: _447  and  _448
REMARK  191  A    between atoms: _451  and  _453
REMARK  192  A    between atoms: _453  and  _454
REMARK  193  A    between atoms: _453  and  _456
REMARK  194  A    between atoms: _456  and  _457
REMARK  195  A    between atoms: _460  and  _462
REMARK  196  A    between atoms: _462  and  _463
REMARK  197  A    between atoms: _462  and  _465
REMARK  198  A    between atoms: _465  and  _466
REMARK  199  A    between atoms: _471  and  _472
REMARK  200  A    between atoms: _474  and  _476
REMARK  201  A    between atoms: _476  and  _477
REMARK  202  A    between atoms: _476  and  _479
REMARK  203  A    between atoms: _482  and  _484
REMARK  204  A    between atoms: _484  and  _485
REMARK  205  A    between atoms: _487  and  _489
REMARK  206  A    between atoms: _489  and  _490
REMARK  207  A    between atoms: _489  and  _492
REMARK  208  A    between atoms: _492  and  _493
REMARK  209  A    between atoms: _499  and  _501
REMARK  210  A    between atoms: _501  and  _502
REMARK  211  A    between atoms: _504  and  _506
REMARK  212  A    between atoms: _506  and  _507
REMARK  213  A    between atoms: _506  and  _509
REMARK  214  A    between atoms: _509  and  _510
REMARK  215  A    between atoms: _516  and  _518
REMARK  216  A    between atoms: _518  and  _519
REMARK  217  A    between atoms: _521  and  _523
REMARK  218  A    between atoms: _523  and  _524
REMARK  219  A    between atoms: _526  and  _528
REMARK  220  A    between atoms: _528  and  _529
REMARK  221  A    between atoms: _528  and  _531
REMARK  222  A    between atoms: _531  and  _532
REMARK  223  A    between atoms: _532  and  _533
REMARK  224  A    between atoms: _538  and  _540
REMARK  225  A    between atoms: _540  and  _541
REMARK  226  A    between atoms: _543  and  _545
REMARK  227  A    between atoms: _545  and  _546
REMARK  228  A    between atoms: _545  and  _548
REMARK  229  A    between atoms: _548  and  _549
REMARK  230  A    between atoms: _552  and  _554
REMARK  231  A    between atoms: _554  and  _555
REMARK  232  A    between atoms: _557  and  _559
REMARK  233  A    between atoms: _559  and  _560
REMARK  234  A    between atoms: _559  and  _562
REMARK  235  A    between atoms: _562  and  _563
REMARK  236  A    between atoms: _566  and  _568
REMARK  237  A    between atoms: _568  and  _569
REMARK  238  A    between atoms: _568  and  _571
REMARK  239  A    between atoms: _571  and  _572
REMARK  240  A    between atoms: _577  and  _579
REMARK  241  A    between atoms: _579  and  _580
REMARK  242  A    between atoms: _579  and  _582
REMARK  243  A    between atoms: _582  and  _583
REMARK  244  A    between atoms: _586  and  _588
REMARK  245  A    between atoms: _588  and  _589
REMARK  246  A    between atoms: _591  and  _593
REMARK  247  A    between atoms: _593  and  _594
REMARK  248  A    between atoms: _593  and  _596
REMARK  249  A    between atoms: _596  and  _597
REMARK  250  A    between atoms: _600  and  _602
REMARK  251  A    between atoms: _602  and  _603
REMARK  252  A    between atoms: _602  and  _605
REMARK                            x       y       z     vdW  Elec       q    Type
REMARK                         _______ _______ _______ _____ _____    ______ ____
ROOT
ATOM      1  O   HOH     1       2.028  25.385  25.643  0.00  0.00    +0.000 OA
ENDROOT
TORSDOF 0
REMARK  Name = ../refined-set-2016/3uri/3uri_pocket.pdb
REMARK  252 active torsions:
REMARK  status: ('A' for Active; 'I' for Inactive)
REMARK    1  A    between atoms: _1  and  _3
REMARK    2  A    between atoms: _3  and  _4
REMARK    3  A    between atoms: _3  and  _6
REMARK    4  A    between atoms: _6  and  _7
REMARK    5  A    between atoms: _10  and  _12
REMARK    6  A    between atoms: _12  and  _13
REMARK    7  A    between atoms: _12  and  _15
REMARK    8  A    between atoms: _15  and  _16
REMARK    9  A    between atoms: _19  and  _21
REMARK   10  A    between atoms: _21  and  _22
REMARK   11  A    between atoms: _21  and  _24
REMARK   12  A    between atoms: _24  and  _25
REMARK   13  A    between atoms: _28  and  _30
REMARK   14  A    between atoms: _30  and  _31
REMARK   15  A    between atoms: _30  and  _33
REMARK   16  A    between atoms: _33  and  _34
REMARK   17  A    between atoms: _37  and  _39
REMARK   18  A    between atoms: _39  and  _40
REMARK   19  A    between atoms: _39  and  _42
REMARK   20  A    between atoms: _42  and  _43
REMARK   21  A    between atoms: _46  and  _48
REMARK   22  A    between atoms: _48  and  _49
REMARK   23  A    between atoms: _52  and  _54
REMARK   24  A    between atoms: _54  and  _55
REMARK   25  A    between atoms: _54  and  _57
REMARK   26  A    between atoms: _57  and  _58
REMARK   27  A    between atoms: _63  and  _64
REMARK   28  A    between atoms: _66  and  _68
REMARK   29  A    between atoms: _68  and  _69
REMARK   30  A    between atoms: _68  and  _71
REMARK   31  A    between atoms: _71  and  _72
REMARK   32  A    between atoms: _75  and  _77
REMARK   33  A    between atoms: _77  and  _78
REMARK   34  A    between atoms: _77  and  _80
REMARK   35  A    between atoms: _80  and  _81
REMARK   36  A    between atoms: _84  and  _86
REMARK   37  A    between atoms: _86  and  _87
REMARK   38  A    between atoms: _86  and  _89
REMARK   39  A    between atoms: _89  and  _90
REMARK   40  A    between atoms: _96  and  _98
REMARK   41  A    between atoms: _98  and  _99
REMARK   42  A    between atoms: _98  and  _101
REMARK   43  A    between atoms: _101  and  _102
REMARK   44  A    between atoms: _105  and  _107
REMARK   45  A    between atoms: _107  and  _108
REMARK   46  A    between atoms: _107  and  _110
REMARK   47  A    between atoms: _110  and  _111
REMARK   48  A    between atoms: _114  and  _116
REMARK   49  A    between atoms: _116  and  _117
REMARK   50  A    between atoms: _119  and  _121
REMARK   51  A    between atoms: _121  and  _122
REMARK   52  A    between atoms: _121  and  _124
REMARK   53  A    between atoms: _124  and  _125
REMARK   54  A    between atoms: _127  and  _129
REMARK   55  A    between atoms: _129  and  _130
REMARK   56  A    between atoms: _129  and  _132
REMARK   57  A    between atoms: _132  and  _133
REMARK   58  A    between atoms: _135  and  _137
REMARK   59  A    between atoms: _137  and  _138
REMARK   60  A    between atoms: _137  and  _140
REMARK   61  A    between atoms: _140  and  _141
REMARK   62  A    between atoms: _144  and  _146
REMARK   63  A    between atoms: _146  and  _147
REMARK   64  A    between atoms: _146  and  _149
REMARK   65  A    between atoms: _149  and  _150
REMARK   66  A    between atoms: _160  and  _162
REMARK   67  A    between atoms: _162  and  _163
REMARK   68  A    between atoms: _162  and  _165
REMARK   69  A    between atoms: _165  and  _166
REMARK   70  A    between atoms: _168  and  _170
REMARK   71  A    between atoms: _170  and  _171
REMARK   72  A    between atoms: _170  and  _173
REMARK   73  A    between atoms: _173  and  _174
REMARK   74  A    between atoms: _177  and  _179
REMARK   75  A    between atoms: _179  and  _180
REMARK   76  A    between atoms: _179  and  _182
REMARK   77  A    between atoms: _182  and  _183
REMARK   78  A    between atoms: _185  and  _187
REMARK   79  A    between atoms: _187  and  _188
REMARK   80  A    between atoms: _187  and  _190
REMARK   81  A    between atoms: _190  and  _191
REMARK   82  A    between atoms: _196  and  _197
REMARK   83  A    between atoms: _199  and  _201
REMARK   84  A    between atoms: _201  and  _202
REMARK   85  A    between atoms: _204  and  _206
REMARK   86  A    between atoms: _206  and  _207
REMARK   87  A    between atoms: _206  and  _209
REMARK   88  A    between atoms: _209  and  _210
REMARK   89  A    between atoms: _213  and  _215
REMARK   90  A    between atoms: _215  and  _216
REMARK   91  A    between atoms: _218  and  _220
REMARK   92  A    between atoms: _220  and  _221
REMARK   93  A    between atoms: _220  and  _223
REMARK   94  A    between atoms: _223  and  _224
REMARK   95  A    between atoms: _226  and  _228
REMARK   96  A    between atoms: _228  and  _229
REMARK   97  A    between atoms: _228  and  _231
REMARK   98  A    between atoms: _231  and  _232
REMARK   99  A    between atoms: _234  and  _236
REMARK  100  A    between atoms: _236  and  _237
REMARK  101  A    between atoms: _236  and  _239
REMARK  102  A    between atoms: _239  and  _240
REMARK  103  A    between atoms: _242  and  _244
REMARK  104  A    between atoms: _244  and  _245
REMARK  105  A    between atoms: _244  and  _247
REMARK  106  A    between atoms: _247  and  _248
REMARK  107  A    between atoms: _250  and  _252
REMARK  108  A    between atoms: _252  and  _253
REMARK  109  A    between atoms: _252  and  _255
REMARK  110  A    between atoms: _255  and  _256
REMARK  111  A    between atoms: _262  and  _264
REMARK  112  A    between atoms: _264  and  _265
REMARK  113  A    between atoms: _264  and  _267
REMARK  114  A    between atoms: _267  and  _268
REMARK  115  A    between atoms: _268  and  _269
REMARK  116  A    between atoms: _272  and  _274
REMARK  117  A    between atoms: _274  and  _275
REMARK  118  A    between atoms: _274  and  _277
REMARK  119  A    between atoms: _277  and  _278
REMARK  120  A    between atoms: _281  and  _283
REMARK  121  A    between atoms: _283  and  _284
REMARK  122  A    between atoms: _283  and  _286
REMARK  123  A    between atoms: _286  and  _287
REMARK  124  A    between atoms: _290  and  _292
REMARK  125  A    between atoms: _292  and  _293
REMARK  126  A    between atoms: _292  and  _295
REMARK  127  A    between atoms: _295  and  _296
REMARK  128  A    between atoms: _299  and  _301
REMARK  129  A    between atoms: _301  and  _302
REMARK  130  A    between atoms: _304  and  _306
REMARK  131  A    between atoms: _306  and  _307
REMARK  132  A    between atoms: _306  and  _309
REMARK  133  A    between atoms: _309  and  _310
REMARK  134  A    between atoms: _313  and  _315
REMARK  135  A    between atoms: _315  and  _316
REMARK  136  A    between atoms: _315  and  _318
REMARK  137  A    between atoms: _318  and  _319
REMARK  138  A    between atoms: _322  and  _324
REMARK  139  A    between atoms: _324  and  _325
REMARK  140  A    between atoms: _328  and  _330
REMARK  141  A    between atoms: _330  and  _331
REMARK  142  A    between atoms: _330  and  _333
REMARK  143  A    between atoms: _333  and  _334
REMARK  144  A    between atoms: _337  and  _339
REMARK  145  A    between atoms: _339  and  _340
REMARK  146  A    between atoms: _339  and  _342
REMARK  147  A    between atoms: _342  and  _343
REMARK  148  A    between atoms: _348  and  _350
REMARK  149  A    between atoms: _350  and  _351
REMARK  150  A    between atoms: _350  and  _353
REMARK  151  A    between atoms: _353  and  _354
REMARK  152  A    between atoms: _357  and  _359
REMARK  153  A    between atoms: _359  and  _360
REMARK  154  A    between atoms: _359  and  _362
REMARK  155  A    between atoms: _362  and  _363
REMARK  156  A    between atoms: _363  and  _364
REMARK  157  A    between atoms: _369  and  _371
REMARK  158  A    between atoms: _371  and  _372
REMARK  159  A    between atoms: _374  and  _376
REMARK  160  A    between atoms: _376  and  _377
REMARK  161  A    between atoms: _376  and  _379
REMARK  162  A    between atoms: _379  and  _380
REMARK  163  A    between atoms: _386  and  _388
REMARK  164  A    between atoms: _388  and  _389
REMARK  165  A    between atoms: _388  and  _391
REMARK  166  A    between atoms: _391  and  _392
REMARK  167  A    between atoms: _395  and  _397
REMARK  168  A    between atoms: _397  and  _398
REMARK  169  A    between atoms: _401  and  _403
REMARK  170  A    between atoms: _403  and  _404
REMARK  171  A    between atoms: _403  and  _406
REMARK  172  A    between atoms: _406  and  _407
REMARK  173  A    between atoms: _410  and  _412
REMARK  174  A    between atoms: _412  and  _413
REMARK  175  A    between atoms: _412  and  _415
REMARK  176  A    between atoms: _415  and  _416
REMARK  177  A    between atoms: _419  and  _421
REMARK  178  A    between atoms: _421  and  _422
REMARK  179  A    between atoms: _424  and  _426
REMARK  180  A    between atoms: _426  and  _427
REMARK  181  A    between atoms: _426  and  _429
REMARK  182  A    between atoms: _429  and  _430
REMARK  183  A    between atoms: _433  and  _435
REMARK  184  A    between atoms: _435  and  _436
REMARK  185  A    between atoms: _435  and  _438
REMARK  186  A    between atoms: _438  and  _439
REMARK  187  A    between atoms: _442  and  _444
REMARK  188  A    between atoms: _444  and  _445
REMARK  189  A    between atoms: _444  and  _447
REMARK  190  A    between atoms: _447  and  _448
REMARK  191  A    between atoms: _451  and  _453
REMARK  192  A    between atoms: _453  and  _454
REMARK  193  A    between atoms: _453  and  _456
REMARK  194  A    between atoms: _456  and  _457
REMARK  195  A    between atoms: _460  and  _462
REMARK  196  A    between atoms: _462  and  _463
REMARK  197  A    between atoms: _462  and  _465
REMARK  198  A    between atoms: _465  and  _466
REMARK  199  A    between atoms: _471  and  _472
REMARK  200  A    between atoms: _474  and  _476
REMARK  201  A    between atoms: _476  and  _477
REMARK  202  A    between atoms: _476  and  _479
REMARK  203  A    between atoms: _482  and  _484
REMARK  204  A    between atoms: _484  and  _485
REMARK  205  A    between atoms: _487  and  _489
REMARK  206  A    between atoms: _489  and  _490
REMARK  207  A    between atoms: _489  and  _492
REMARK  208  A    between atoms: _492  and  _493
REMARK  209  A    between atoms: _499  and  _501
REMARK  210  A    between atoms: _501  and  _502
REMARK  211  A    between atoms: _504  and  _506
REMARK  212  A    between atoms: _506  and  _507
REMARK  213  A    between atoms: _506  and  _509
REMARK  214  A    between atoms: _509  and  _510
REMARK  215  A    between atoms: _516  and  _518
REMARK  216  A    between atoms: _518  and  _519
REMARK  217  A    between atoms: _521  and  _523
REMARK  218  A    between atoms: _523  and  _524
REMARK  219  A    between atoms: _526  and  _528
REMARK  220  A    between atoms: _528  and  _529
REMARK  221  A    between atoms: _528  and  _531
REMARK  222  A    between atoms: _531  and  _532
REMARK  223  A    between atoms: _532  and  _533
REMARK  224  A    between atoms: _538  and  _540
REMARK  225  A    between atoms: _540  and  _541
REMARK  226  A    between atoms: _543  and  _545
REMARK  227  A    between atoms: _545  and  _546
REMARK  228  A    between atoms: _545  and  _548
REMARK  229  A    between atoms: _548  and  _549
REMARK  230  A    between atoms: _552  and  _554
REMARK  231  A    between atoms: _554  and  _555
REMARK  232  A    between atoms: _557  and  _559
REMARK  233  A    between atoms: _559  and  _560
REMARK  234  A    between atoms: _559  and  _562
REMARK  235  A    between atoms: _562  and  _563
REMARK  236  A    between atoms: _566  and  _568
REMARK  237  A    between atoms: _568  and  _569
REMARK  238  A    between atoms: _568  and  _571
REMARK  239  A    between atoms: _571  and  _572
REMARK  240  A    between atoms: _577  and  _579
REMARK  241  A    between atoms: _579  and  _580
REMARK  242  A    between atoms: _579  and  _582
REMARK  243  A    between atoms: _582  and  _583
REMARK  244  A    between atoms: _586  and  _588
REMARK  245  A    between atoms: _588  and  _589
REMARK  246  A    between atoms: _591  and  _593
REMARK  247  A    between atoms: _593  and  _594
REMARK  248  A    between atoms: _593  and  _596
REMARK  249  A    between atoms: _596  and  _597
REMARK  250  A    between atoms: _600  and  _602
REMARK  251  A    between atoms: _602  and  _603
REMARK  252  A    between atoms: _602  and  _605
REMARK                            x       y       z     vdW  Elec       q    Type
REMARK                         _______ _______ _______ _____ _____    ______ ____
ROOT
ATOM      1  O   HOH     1      -1.865  30.270  20.098  0.00  0.00    +0.000 OA
ENDROOT
TORSDOF 0
