REMARK  Name = ../refined-set-2016/3djk/3djk_pocket.pdb
REMARK  232 active torsions:
REMARK  status: ('A' for Active; 'I' for Inactive)
REMARK    1  A    between atoms: _1  and  _3
REMARK    2  A    between atoms: _3  and  _4
REMARK    3  A    between atoms: _3  and  _6
REMARK    4  A    between atoms: _6  and  _7
REMARK    5  A    between atoms: _7  and  _8
REMARK    6  A    between atoms: _8  and  _9
REMARK    7  A    between atoms: _9  and  _11
REMARK    8  A    between atoms: _11  and  _15
REMARK    9  A    between atoms: _18  and  _20
REMARK   10  A    between atoms: _20  and  _21
REMARK   11  A    between atoms: _20  and  _23
REMARK   12  A    between atoms: _23  and  _24
REMARK   13  A    between atoms: _27  and  _29
REMARK   14  A    between atoms: _29  and  _30
REMARK   15  A    between atoms: _29  and  _32
REMARK   16  A    between atoms: _32  and  _33
REMARK   17  A    between atoms: _36  and  _38
REMARK   18  A    between atoms: _38  and  _39
REMARK   19  A    between atoms: _38  and  _41
REMARK   20  A    between atoms: _41  and  _42
REMARK   21  A    between atoms: _45  and  _47
REMARK   22  A    between atoms: _47  and  _48
REMARK   23  A    between atoms: _47  and  _50
REMARK   24  A    between atoms: _50  and  _51
REMARK   25  A    between atoms: _54  and  _56
REMARK   26  A    between atoms: _56  and  _57
REMARK   27  A    between atoms: _59  and  _61
REMARK   28  A    between atoms: _61  and  _62
REMARK   29  A    between atoms: _65  and  _67
REMARK   30  A    between atoms: _67  and  _68
REMARK   31  A    between atoms: _67  and  _70
REMARK   32  A    between atoms: _70  and  _71
REMARK   33  A    between atoms: _74  and  _76
REMARK   34  A    between atoms: _76  and  _77
REMARK   35  A    between atoms: _76  and  _79
REMARK   36  A    between atoms: _79  and  _80
REMARK   37  A    between atoms: _83  and  _85
REMARK   38  A    between atoms: _85  and  _86
REMARK   39  A    between atoms: _85  and  _88
REMARK   40  A    between atoms: _88  and  _89
REMARK   41  A    between atoms: _92  and  _94
REMARK   42  A    between atoms: _94  and  _95
REMARK   43  A    between atoms: _94  and  _97
REMARK   44  A    between atoms: _100  and  _102
REMARK   45  A    between atoms: _102  and  _103
REMARK   46  A    between atoms: _102  and  _105
REMARK   47  A    between atoms: _105  and  _106
REMARK   48  A    between atoms: _106  and  _107
REMARK   49  A    between atoms: _107  and  _108
REMARK   50  A    between atoms: _108  and  _109
REMARK   51  A    between atoms: _113  and  _115
REMARK   52  A    between atoms: _115  and  _116
REMARK   53  A    between atoms: _115  and  _118
REMARK   54  A    between atoms: _118  and  _119
REMARK   55  A    between atoms: _119  and  _120
REMARK   56  A    between atoms: _122  and  _124
REMARK   57  A    between atoms: _124  and  _125
REMARK   58  A    between atoms: _124  and  _127
REMARK   59  A    between atoms: _127  and  _128
REMARK   60  A    between atoms: _131  and  _133
REMARK   61  A    between atoms: _133  and  _134
REMARK   62  A    between atoms: _136  and  _138
REMARK   63  A    between atoms: _138  and  _139
REMARK   64  A    between atoms: _141  and  _143
REMARK   65  A    between atoms: _143  and  _144
REMARK   66  A    between atoms: _143  and  _146
REMARK   67  A    between atoms: _146  and  _147
REMARK   68  A    between atoms: _150  and  _152
REMARK   69  A    between atoms: _152  and  _153
REMARK   70  A    between atoms: _155  and  _157
REMARK   71  A    between atoms: _157  and  _158
REMARK   72  A    between atoms: _160  and  _162
REMARK   73  A    between atoms: _162  and  _163
REMARK   74  A    between atoms: _162  and  _165
REMARK   75  A    between atoms: _165  and  _166
REMARK   76  A    between atoms: _172  and  _174
REMARK   77  A    between atoms: _174  and  _175
REMARK   78  A    between atoms: _174  and  _177
REMARK   79  A    between atoms: _177  and  _178
REMARK   80  A    between atoms: _181  and  _183
REMARK   81  A    between atoms: _183  and  _184
REMARK   82  A    between atoms: _183  and  _186
REMARK   83  A    between atoms: _189  and  _191
REMARK   84  A    between atoms: _191  and  _192
REMARK   85  A    between atoms: _191  and  _194
REMARK   86  A    between atoms: _194  and  _195
REMARK   87  A    between atoms: _199  and  _200
REMARK   88  A    between atoms: _205  and  _207
REMARK   89  A    between atoms: _207  and  _208
REMARK   90  A    between atoms: _207  and  _210
REMARK   91  A    between atoms: _210  and  _211
REMARK   92  A    between atoms: _215  and  _216
REMARK   93  A    between atoms: _221  and  _223
REMARK   94  A    between atoms: _223  and  _224
REMARK   95  A    between atoms: _223  and  _226
REMARK   96  A    between atoms: _229  and  _231
REMARK   97  A    between atoms: _231  and  _232
REMARK   98  A    between atoms: _231  and  _234
REMARK   99  A    between atoms: _234  and  _235
REMARK  100  A    between atoms: _240  and  _242
REMARK  101  A    between atoms: _242  and  _243
REMARK  102  A    between atoms: _242  and  _245
REMARK  103  A    between atoms: _245  and  _246
REMARK  104  A    between atoms: _249  and  _251
REMARK  105  A    between atoms: _251  and  _252
REMARK  106  A    between atoms: _251  and  _254
REMARK  107  A    between atoms: _254  and  _255
REMARK  108  A    between atoms: _258  and  _260
REMARK  109  A    between atoms: _260  and  _261
REMARK  110  A    between atoms: _263  and  _265
REMARK  111  A    between atoms: _265  and  _266
REMARK  112  A    between atoms: _265  and  _268
REMARK  113  A    between atoms: _268  and  _269
REMARK  114  A    between atoms: _269  and  _270
REMARK  115  A    between atoms: _270  and  _271
REMARK  116  A    between atoms: _280  and  _282
REMARK  117  A    between atoms: _282  and  _283
REMARK  118  A    between atoms: _282  and  _285
REMARK  119  A    between atoms: _285  and  _286
REMARK  120  A    between atoms: _291  and  _293
REMARK  121  A    between atoms: _293  and  _294
REMARK  122  A    between atoms: _293  and  _296
REMARK  123  A    between atoms: _296  and  _297
REMARK  124  A    between atoms: _297  and  _298
REMARK  125  A    between atoms: _298  and  _299
REMARK  126  A    between atoms: _308  and  _310
REMARK  127  A    between atoms: _310  and  _311
REMARK  128  A    between atoms: _310  and  _313
REMARK  129  A    between atoms: _313  and  _314
REMARK  130  A    between atoms: _317  and  _319
REMARK  131  A    between atoms: _319  and  _320
REMARK  132  A    between atoms: _319  and  _322
REMARK  133  A    between atoms: _322  and  _323
REMARK  134  A    between atoms: _326  and  _328
REMARK  135  A    between atoms: _328  and  _329
REMARK  136  A    between atoms: _328  and  _331
REMARK  137  A    between atoms: _331  and  _332
REMARK  138  A    between atoms: _335  and  _337
REMARK  139  A    between atoms: _337  and  _338
REMARK  140  A    between atoms: _337  and  _340
REMARK  141  A    between atoms: _340  and  _341
REMARK  142  A    between atoms: _344  and  _346
REMARK  143  A    between atoms: _346  and  _347
REMARK  144  A    between atoms: _349  and  _351
REMARK  145  A    between atoms: _351  and  _352
REMARK  146  A    between atoms: _355  and  _357
REMARK  147  A    between atoms: _357  and  _358
REMARK  148  A    between atoms: _357  and  _360
REMARK  149  A    between atoms: _360  and  _361
REMARK  150  A    between atoms: _364  and  _366
REMARK  151  A    between atoms: _366  and  _367
REMARK  152  A    between atoms: _366  and  _369
REMARK  153  A    between atoms: _369  and  _370
REMARK  154  A    between atoms: _373  and  _375
REMARK  155  A    between atoms: _375  and  _376
REMARK  156  A    between atoms: _375  and  _378
REMARK  157  A    between atoms: _378  and  _379
REMARK  158  A    between atoms: _382  and  _384
REMARK  159  A    between atoms: _384  and  _385
REMARK  160  A    between atoms: _384  and  _387
REMARK  161  A    between atoms: _390  and  _392
REMARK  162  A    between atoms: _392  and  _393
REMARK  163  A    between atoms: _392  and  _395
REMARK  164  A    between atoms: _395  and  _396
REMARK  165  A    between atoms: _396  and  _397
REMARK  166  A    between atoms: _397  and  _398
REMARK  167  A    between atoms: _398  and  _399
REMARK  168  A    between atoms: _403  and  _405
REMARK  169  A    between atoms: _405  and  _406
REMARK  170  A    between atoms: _405  and  _408
REMARK  171  A    between atoms: _408  and  _409
REMARK  172  A    between atoms: _409  and  _410
REMARK  173  A    between atoms: _412  and  _414
REMARK  174  A    between atoms: _414  and  _415
REMARK  175  A    between atoms: _414  and  _417
REMARK  176  A    between atoms: _417  and  _418
REMARK  177  A    between atoms: _421  and  _423
REMARK  178  A    between atoms: _423  and  _424
REMARK  179  A    between atoms: _426  and  _428
REMARK  180  A    between atoms: _428  and  _429
REMARK  181  A    between atoms: _431  and  _433
REMARK  182  A    between atoms: _433  and  _434
REMARK  183  A    between atoms: _433  and  _436
REMARK  184  A    between atoms: _436  and  _437
REMARK  185  A    between atoms: _440  and  _442
REMARK  186  A    between atoms: _442  and  _443
REMARK  187  A    between atoms: _445  and  _447
REMARK  188  A    between atoms: _447  and  _448
REMARK  189  A    between atoms: _450  and  _452
REMARK  190  A    between atoms: _452  and  _453
REMARK  191  A    between atoms: _452  and  _455
REMARK  192  A    between atoms: _455  and  _456
REMARK  193  A    between atoms: _462  and  _464
REMARK  194  A    between atoms: _464  and  _465
REMARK  195  A    between atoms: _464  and  _467
REMARK  196  A    between atoms: _467  and  _468
REMARK  197  A    between atoms: _471  and  _473
REMARK  198  A    between atoms: _473  and  _474
REMARK  199  A    between atoms: _473  and  _476
REMARK  200  A    between atoms: _476  and  _477
REMARK  201  A    between atoms: _480  and  _482
REMARK  202  A    between atoms: _482  and  _483
REMARK  203  A    between atoms: _482  and  _485
REMARK  204  A    between atoms: _485  and  _486
REMARK  205  A    between atoms: _490  and  _491
REMARK  206  A    between atoms: _496  and  _498
REMARK  207  A    between atoms: _498  and  _499
REMARK  208  A    between atoms: _498  and  _501
REMARK  209  A    between atoms: _504  and  _506
REMARK  210  A    between atoms: _506  and  _507
REMARK  211  A    between atoms: _506  and  _509
REMARK  212  A    between atoms: _509  and  _510
REMARK  213  A    between atoms: _515  and  _517
REMARK  214  A    between atoms: _517  and  _518
REMARK  215  A    between atoms: _517  and  _520
REMARK  216  A    between atoms: _520  and  _521
REMARK  217  A    between atoms: _524  and  _526
REMARK  218  A    between atoms: _526  and  _527
REMARK  219  A    between atoms: _526  and  _529
REMARK  220  A    between atoms: _529  and  _530
REMARK  221  A    between atoms: _533  and  _535
REMARK  222  A    between atoms: _535  and  _536
REMARK  223  A    between atoms: _538  and  _540
REMARK  224  A    between atoms: _540  and  _541
REMARK  225  A    between atoms: _540  and  _543
REMARK  226  A    between atoms: _543  and  _544
REMARK  227  A    between atoms: _544  and  _545
REMARK  228  A    between atoms: _545  and  _546
REMARK  229  A    between atoms: _555  and  _557
REMARK  230  A    between atoms: _557  and  _558
REMARK  231  A    between atoms: _557  and  _560
REMARK  232  A    between atoms: _560  and  _561
REMARK                            x       y       z     vdW  Elec       q    Type
REMARK                         _______ _______ _______ _____ _____    ______ ____
ROOT
ATOM      1  N   UNL     1       6.649  21.160  15.142  0.00  0.00    -0.280 NA
ATOM      2  H   UNL     1       6.607  20.830  16.127  0.00  0.00    +0.125 HD
ENDROOT
BRANCH   1   3
ATOM      3  C   UNL     1       7.514  20.567  14.337  0.00  0.00    +0.160 C 
ATOM      4  O   UNL     1       8.556  21.811  13.679  0.00  0.00    -0.407 OA
ATOM      5  N   UNL     1       7.553  21.022  13.084  0.00  0.00    +0.438 N 
ATOM      6  H   UNL     1       6.925  21.799  12.793  0.00  0.00    -0.031 HD
ATOM      7  H   UNL     1       8.211  20.600  12.398  0.00  0.00    -0.031 HD
BRANCH   3   8
ATOM      8  N   UNL     1       8.259  19.595  14.840  0.00  0.00    -0.304 NA
ATOM      9  H   UNL     1       8.153  19.321  15.838  0.00  0.00    +0.120 HD
ATOM     10  H   UNL     1       8.951  19.105  14.237  0.00  0.00    +0.120 HD
ENDBRANCH   3   8
ENDBRANCH   1   3
BRANCH   1  11
ATOM     11  C   UNL     1       5.751  22.239  14.756  0.00  0.00    +0.070 C 
BRANCH  11  12
ATOM     12  C   UNL     1       4.932  22.776  15.932  0.00  0.00    +0.019 C 
BRANCH  12  13
ATOM     13  C   UNL     1       4.332  24.124  15.589  0.00  0.00    +0.026 C 
BRANCH  13  14
ATOM     14  CA  UNL     1       3.737  24.890  16.787  0.00  0.00    +0.133 C 
BRANCH  14  15
ATOM     15  N   UNL     1       2.515  24.224  17.283  0.00  0.00    -0.239 NA
ATOM     16  H   UNL     1       2.178  23.352  16.828  0.00  0.00    +0.142 HD
ENDBRANCH  14  15
BRANCH  14  17
ATOM     17  C   UNL     1       3.428  26.319  16.365  0.00  0.00    +0.224 C 
ATOM     18  O   UNL     1       2.401  26.552  15.690  0.00  0.00    -0.287 OA
ENDBRANCH  14  17
ENDBRANCH  13  14
ENDBRANCH  12  13
ENDBRANCH  11  12
ENDBRANCH   1  11
TORSDOF 8
REMARK  Name = ../refined-set-2016/3djk/3djk_pocket.pdb
REMARK  232 active torsions:
REMARK  status: ('A' for Active; 'I' for Inactive)
REMARK    1  A    between atoms: _1  and  _3
REMARK    2  A    between atoms: _3  and  _4
REMARK    3  A    between atoms: _3  and  _6
REMARK    4  A    between atoms: _6  and  _7
REMARK    5  A    between atoms: _7  and  _8
REMARK    6  A    between atoms: _8  and  _9
REMARK    7  A    between atoms: _9  and  _11
REMARK    8  A    between atoms: _11  and  _15
REMARK    9  A    between atoms: _18  and  _20
REMARK   10  A    between atoms: _20  and  _21
REMARK   11  A    between atoms: _20  and  _23
REMARK   12  A    between atoms: _23  and  _24
REMARK   13  A    between atoms: _27  and  _29
REMARK   14  A    between atoms: _29  and  _30
REMARK   15  A    between atoms: _29  and  _32
REMARK   16  A    between atoms: _32  and  _33
REMARK   17  A    between atoms: _36  and  _38
REMARK   18  A    between atoms: _38  and  _39
REMARK   19  A    between atoms: _38  and  _41
REMARK   20  A    between atoms: _41  and  _42
REMARK   21  A    between atoms: _45  and  _47
REMARK   22  A    between atoms: _47  and  _48
REMARK   23  A    between atoms: _47  and  _50
REMARK   24  A    between atoms: _50  and  _51
REMARK   25  A    between atoms: _54  and  _56
REMARK   26  A    between atoms: _56  and  _57
REMARK   27  A    between atoms: _59  and  _61
REMARK   28  A    between atoms: _61  and  _62
REMARK   29  A    between atoms: _65  and  _67
REMARK   30  A    between atoms: _67  and  _68
REMARK   31  A    between atoms: _67  and  _70
REMARK   32  A    between atoms: _70  and  _71
REMARK   33  A    between atoms: _74  and  _76
REMARK   34  A    between atoms: _76  and  _77
REMARK   35  A    between atoms: _76  and  _79
REMARK   36  A    between atoms: _79  and  _80
REMARK   37  A    between atoms: _83  and  _85
REMARK   38  A    between atoms: _85  and  _86
REMARK   39  A    between atoms: _85  and  _88
REMARK   40  A    between atoms: _88  and  _89
REMARK   41  A    between atoms: _92  and  _94
REMARK   42  A    between atoms: _94  and  _95
REMARK   43  A    between atoms: _94  and  _97
REMARK   44  A    between atoms: _100  and  _102
REMARK   45  A    between atoms: _102  and  _103
REMARK   46  A    between atoms: _102  and  _105
REMARK   47  A    between atoms: _105  and  _106
REMARK   48  A    between atoms: _106  and  _107
REMARK   49  A    between atoms: _107  and  _108
REMARK   50  A    between atoms: _108  and  _109
REMARK   51  A    between atoms: _113  and  _115
REMARK   52  A    between atoms: _115  and  _116
REMARK   53  A    between atoms: _115  and  _118
REMARK   54  A    between atoms: _118  and  _119
REMARK   55  A    between atoms: _119  and  _120
REMARK   56  A    between atoms: _122  and  _124
REMARK   57  A    between atoms: _124  and  _125
REMARK   58  A    between atoms: _124  and  _127
REMARK   59  A    between atoms: _127  and  _128
REMARK   60  A    between atoms: _131  and  _133
REMARK   61  A    between atoms: _133  and  _134
REMARK   62  A    between atoms: _136  and  _138
REMARK   63  A    between atoms: _138  and  _139
REMARK   64  A    between atoms: _141  and  _143
REMARK   65  A    between atoms: _143  and  _144
REMARK   66  A    between atoms: _143  and  _146
REMARK   67  A    between atoms: _146  and  _147
REMARK   68  A    between atoms: _150  and  _152
REMARK   69  A    between atoms: _152  and  _153
REMARK   70  A    between atoms: _155  and  _157
REMARK   71  A    between atoms: _157  and  _158
REMARK   72  A    between atoms: _160  and  _162
REMARK   73  A    between atoms: _162  and  _163
REMARK   74  A    between atoms: _162  and  _165
REMARK   75  A    between atoms: _165  and  _166
REMARK   76  A    between atoms: _172  and  _174
REMARK   77  A    between atoms: _174  and  _175
REMARK   78  A    between atoms: _174  and  _177
REMARK   79  A    between atoms: _177  and  _178
REMARK   80  A    between atoms: _181  and  _183
REMARK   81  A    between atoms: _183  and  _184
REMARK   82  A    between atoms: _183  and  _186
REMARK   83  A    between atoms: _189  and  _191
REMARK   84  A    between atoms: _191  and  _192
REMARK   85  A    between atoms: _191  and  _194
REMARK   86  A    between atoms: _194  and  _195
REMARK   87  A    between atoms: _199  and  _200
REMARK   88  A    between atoms: _205  and  _207
REMARK   89  A    between atoms: _207  and  _208
REMARK   90  A    between atoms: _207  and  _210
REMARK   91  A    between atoms: _210  and  _211
REMARK   92  A    between atoms: _215  and  _216
REMARK   93  A    between atoms: _221  and  _223
REMARK   94  A    between atoms: _223  and  _224
REMARK   95  A    between atoms: _223  and  _226
REMARK   96  A    between atoms: _229  and  _231
REMARK   97  A    between atoms: _231  and  _232
REMARK   98  A    between atoms: _231  and  _234
REMARK   99  A    between atoms: _234  and  _235
REMARK  100  A    between atoms: _240  and  _242
REMARK  101  A    between atoms: _242  and  _243
REMARK  102  A    between atoms: _242  and  _245
REMARK  103  A    between atoms: _245  and  _246
REMARK  104  A    between atoms: _249  and  _251
REMARK  105  A    between atoms: _251  and  _252
REMARK  106  A    between atoms: _251  and  _254
REMARK  107  A    between atoms: _254  and  _255
REMARK  108  A    between atoms: _258  and  _260
REMARK  109  A    between atoms: _260  and  _261
REMARK  110  A    between atoms: _263  and  _265
REMARK  111  A    between atoms: _265  and  _266
REMARK  112  A    between atoms: _265  and  _268
REMARK  113  A    between atoms: _268  and  _269
REMARK  114  A    between atoms: _269  and  _270
REMARK  115  A    between atoms: _270  and  _271
REMARK  116  A    between atoms: _280  and  _282
REMARK  117  A    between atoms: _282  and  _283
REMARK  118  A    between atoms: _282  and  _285
REMARK  119  A    between atoms: _285  and  _286
REMARK  120  A    between atoms: _291  and  _293
REMARK  121  A    between atoms: _293  and  _294
REMARK  122  A    between atoms: _293  and  _296
REMARK  123  A    between atoms: _296  and  _297
REMARK  124  A    between atoms: _297  and  _298
REMARK  125  A    between atoms: _298  and  _299
REMARK  126  A    between atoms: _308  and  _310
REMARK  127  A    between atoms: _310  and  _311
REMARK  128  A    between atoms: _310  and  _313
REMARK  129  A    between atoms: _313  and  _314
REMARK  130  A    between atoms: _317  and  _319
REMARK  131  A    between atoms: _319  and  _320
REMARK  132  A    between atoms: _319  and  _322
REMARK  133  A    between atoms: _322  and  _323
REMARK  134  A    between atoms: _326  and  _328
REMARK  135  A    between atoms: _328  and  _329
REMARK  136  A    between atoms: _328  and  _331
REMARK  137  A    between atoms: _331  and  _332
REMARK  138  A    between atoms: _335  and  _337
REMARK  139  A    between atoms: _337  and  _338
REMARK  140  A    between atoms: _337  and  _340
REMARK  141  A    between atoms: _340  and  _341
REMARK  142  A    between atoms: _344  and  _346
REMARK  143  A    between atoms: _346  and  _347
REMARK  144  A    between atoms: _349  and  _351
REMARK  145  A    between atoms: _351  and  _352
REMARK  146  A    between atoms: _355  and  _357
REMARK  147  A    between atoms: _357  and  _358
REMARK  148  A    between atoms: _357  and  _360
REMARK  149  A    between atoms: _360  and  _361
REMARK  150  A    between atoms: _364  and  _366
REMARK  151  A    between atoms: _366  and  _367
REMARK  152  A    between atoms: _366  and  _369
REMARK  153  A    between atoms: _369  and  _370
REMARK  154  A    between atoms: _373  and  _375
REMARK  155  A    between atoms: _375  and  _376
REMARK  156  A    between atoms: _375  and  _378
REMARK  157  A    between atoms: _378  and  _379
REMARK  158  A    between atoms: _382  and  _384
REMARK  159  A    between atoms: _384  and  _385
REMARK  160  A    between atoms: _384  and  _387
REMARK  161  A    between atoms: _390  and  _392
REMARK  162  A    between atoms: _392  and  _393
REMARK  163  A    between atoms: _392  and  _395
REMARK  164  A    between atoms: _395  and  _396
REMARK  165  A    between atoms: _396  and  _397
REMARK  166  A    between atoms: _397  and  _398
REMARK  167  A    between atoms: _398  and  _399
REMARK  168  A    between atoms: _403  and  _405
REMARK  169  A    between atoms: _405  and  _406
REMARK  170  A    between atoms: _405  and  _408
REMARK  171  A    between atoms: _408  and  _409
REMARK  172  A    between atoms: _409  and  _410
REMARK  173  A    between atoms: _412  and  _414
REMARK  174  A    between atoms: _414  and  _415
REMARK  175  A    between atoms: _414  and  _417
REMARK  176  A    between atoms: _417  and  _418
REMARK  177  A    between atoms: _421  and  _423
REMARK  178  A    between atoms: _423  and  _424
REMARK  179  A    between atoms: _426  and  _428
REMARK  180  A    between atoms: _428  and  _429
REMARK  181  A    between atoms: _431  and  _433
REMARK  182  A    between atoms: _433  and  _434
REMARK  183  A    between atoms: _433  and  _436
REMARK  184  A    between atoms: _436  and  _437
REMARK  185  A    between atoms: _440  and  _442
REMARK  186  A    between atoms: _442  and  _443
REMARK  187  A    between atoms: _445  and  _447
REMARK  188  A    between atoms: _447  and  _448
REMARK  189  A    between atoms: _450  and  _452
REMARK  190  A    between atoms: _452  and  _453
REMARK  191  A    between atoms: _452  and  _455
REMARK  192  A    between atoms: _455  and  _456
REMARK  193  A    between atoms: _462  and  _464
REMARK  194  A    between atoms: _464  and  _465
REMARK  195  A    between atoms: _464  and  _467
REMARK  196  A    between atoms: _467  and  _468
REMARK  197  A    between atoms: _471  and  _473
REMARK  198  A    between atoms: _473  and  _474
REMARK  199  A    between atoms: _473  and  _476
REMARK  200  A    between atoms: _476  and  _477
REMARK  201  A    between atoms: _480  and  _482
REMARK  202  A    between atoms: _482  and  _483
REMARK  203  A    between atoms: _482  and  _485
REMARK  204  A    between atoms: _485  and  _486
REMARK  205  A    between atoms: _490  and  _491
REMARK  206  A    between atoms: _496  and  _498
REMARK  207  A    between atoms: _498  and  _499
REMARK  208  A    between atoms: _498  and  _501
REMARK  209  A    between atoms: _504  and  _506
REMARK  210  A    between atoms: _506  and  _507
REMARK  211  A    between atoms: _506  and  _509
REMARK  212  A    between atoms: _509  and  _510
REMARK  213  A    between atoms: _515  and  _517
REMARK  214  A    between atoms: _517  and  _518
REMARK  215  A    between atoms: _517  and  _520
REMARK  216  A    between atoms: _520  and  _521
REMARK  217  A    between atoms: _524  and  _526
REMARK  218  A    between atoms: _526  and  _527
REMARK  219  A    between atoms: _526  and  _529
REMARK  220  A    between atoms: _529  and  _530
REMARK  221  A    between atoms: _533  and  _535
REMARK  222  A    between atoms: _535  and  _536
REMARK  223  A    between atoms: _538  and  _540
REMARK  224  A    between atoms: _540  and  _541
REMARK  225  A    between atoms: _540  and  _543
REMARK  226  A    between atoms: _543  and  _544
REMARK  227  A    between atoms: _544  and  _545
REMARK  228  A    between atoms: _545  and  _546
REMARK  229  A    between atoms: _555  and  _557
REMARK  230  A    between atoms: _557  and  _558
REMARK  231  A    between atoms: _557  and  _560
REMARK  232  A    between atoms: _560  and  _561
REMARK                            x       y       z     vdW  Elec       q    Type
REMARK                         _______ _______ _______ _____ _____    ______ ____
ROOT
ATOM      1  C   GLY A   5      16.746  28.561  19.805  0.00  0.00    +0.243 C 
ATOM      2  O   GLY A   5      17.840  27.989  19.967  0.00  0.00    -0.273 OA
ATOM      3  N   ALA A   6      16.467  29.233  18.717  0.00  0.00    -0.297 N 
ATOM      4  H   ALA A   6      15.549  29.719  18.670  0.00  0.00    +0.150 HD
ENDROOT
BRANCH   3   5
ATOM      5  CA  ALA A   6      17.350  29.346  17.575  0.00  0.00    +0.149 C 
ATOM      6  CB  ALA A   6      16.571  29.228  16.291  0.00  0.00    +0.031 C 
BRANCH   5   7
ATOM      7  C   ALA A   6      18.064  30.696  17.604  0.00  0.00    +0.241 C 
ATOM      8  N   ASP A   7      19.400  30.709  17.625  0.00  0.00    -0.297 N 
ATOM      9  H   ASP A   7      19.940  29.822  17.677  0.00  0.00    +0.150 HD
ATOM     10  O   ALA A   6      17.403  31.747  17.554  0.00  0.00    -0.273 OA
BRANCH   8  11
ATOM     11  CA  ASP A   7      20.080  31.991  17.574  0.00  0.00    +0.160 C 
BRANCH  11  12
ATOM     12  C   ASP A   7      19.852  32.716  16.261  0.00  0.00    +0.241 C 
ATOM     13  O   ASP A   7      19.735  33.939  16.234  0.00  0.00    -0.273 OA
ATOM     14  N   ASP A   8      19.870  31.938  15.186  0.00  0.00    -0.297 N 
ATOM     15  H   ASP A   8      19.914  30.911  15.344  0.00  0.00    +0.150 HD
BRANCH  14  16
ATOM     16  CA  ASP A   8      19.834  32.390  13.827  0.00  0.00    +0.160 C 
BRANCH  16  17
ATOM     17  C   ASP A   8      18.648  31.828  13.077  0.00  0.00    +0.241 C 
ATOM     18  O   ASP A   8      18.062  30.834  13.468  0.00  0.00    -0.273 OA
ATOM     19  N   THR A   9      18.307  32.486  11.998  0.00  0.00    -0.295 N 
ATOM     20  H   THR A   9      18.836  33.355  11.785  0.00  0.00    +0.150 HD
BRANCH  19  21
ATOM     21  CA  THR A   9      17.260  32.110  11.078  0.00  0.00    +0.176 C 
BRANCH  21  22
ATOM     22  C   THR A   9      17.790  31.145  10.029  0.00  0.00    +0.243 C 
ATOM     23  N   VAL A  10      17.086  30.040   9.806  0.00  0.00    -0.298 N 
ATOM     24  H   VAL A  10      16.177  29.936  10.301  0.00  0.00    +0.150 HD
ATOM     25  O   THR A   9      18.849  31.418   9.422  0.00  0.00    -0.273 OA
BRANCH  23  26
ATOM     26  CA  VAL A  10      17.493  28.985   8.933  0.00  0.00    +0.137 C 
BRANCH  26  27
ATOM     27  CB  VAL A  10      18.004  27.727   9.732  0.00  0.00    +0.026 C 
ATOM     28  CG2 VAL A  10      18.827  28.086  10.943  0.00  0.00    +0.002 C 
ATOM     29  CG1 VAL A  10      18.782  26.827   8.755  0.00  0.00    +0.002 C 
ENDBRANCH  26  27
BRANCH  26  30
ATOM     30  C   VAL A  10      16.355  28.586   8.007  0.00  0.00    +0.227 C 
ATOM     31  O   VAL A  10      15.291  28.216   8.486  0.00  0.00    -0.286 OA
ENDBRANCH  26  30
ENDBRANCH  23  26
ENDBRANCH  21  22
BRANCH  21  32
ATOM     32  CB  THR A   9      16.689  33.377  10.478  0.00  0.00    +0.137 C 
ATOM     33  CG2 THR A   9      15.678  33.140   9.360  0.00  0.00    +0.034 C 
BRANCH  32  34
ATOM     34  OG1 THR A   9      16.071  34.134  11.510  0.00  0.00    -0.382 OA
ATOM     35  HG1 THR A   9      16.744  34.362  12.199  0.00  0.00    +0.210 HD
ENDBRANCH  32  34
ENDBRANCH  21  32
ENDBRANCH  19  21
ENDBRANCH  16  17
BRANCH  16  36
ATOM     36  CB  ASP A   8      21.132  31.926  13.144  0.00  0.00    +0.143 C 
BRANCH  36  37
ATOM     37  CG  ASP A   8      22.441  32.471  13.686  0.00  0.00    +0.367 C 
ATOM     38  OD2 ASP A   8      22.438  33.382  14.511  0.00  0.00    -0.246 OA
ATOM     39  OD1 ASP A   8      23.535  31.961  13.345  0.00  0.00    -0.246 OA
ENDBRANCH  36  37
ENDBRANCH  16  36
ENDBRANCH  14  16
ENDBRANCH  11  12
BRANCH  11  40
ATOM     40  CB  ASP A   7      21.571  31.783  17.780  0.00  0.00    +0.143 C 
BRANCH  40  41
ATOM     41  CG  ASP A   7      22.047  31.227  19.074  0.00  0.00    +0.367 C 
ATOM     42  OD2 ASP A   7      21.399  31.356  20.105  0.00  0.00    -0.246 OA
ATOM     43  OD1 ASP A   7      23.178  30.668  19.135  0.00  0.00    -0.246 OA
ENDBRANCH  40  41
ENDBRANCH  11  40
ENDBRANCH   8  11
ENDBRANCH   5   7
ENDBRANCH   3   5
BRANCH   1  44
ATOM     44  CA  GLY A   5      15.735  28.481  20.905  0.00  0.00    +0.176 C 
BRANCH  44  47
ATOM     45  C   THR A   4      14.474  30.537  20.953  0.00  0.00    +0.243 C 
ATOM     46  O   THR A   4      15.403  31.165  21.499  0.00  0.00    -0.273 OA
ATOM     47  N   GLY A   5      14.540  29.270  20.661  0.00  0.00    -0.295 N 
ATOM     48  H   GLY A   5      13.710  28.807  20.239  0.00  0.00    +0.150 HD
BRANCH  45  49
ATOM     49  CA  THR A   4      13.189  31.307  20.644  0.00  0.00    +0.176 C 
BRANCH  49  51
ATOM     50  C   ASP A   3      12.793  30.478  18.395  0.00  0.00    +0.241 C 
ATOM     51  N   THR A   4      12.373  30.616  19.644  0.00  0.00    -0.295 N 
ATOM     52  H   THR A   4      11.448  30.227  19.919  0.00  0.00    +0.150 HD
ATOM     53  O   ASP A   3      13.879  30.904  18.006  0.00  0.00    -0.273 OA
BRANCH  50  54
ATOM     54  CA  ASP A   3      11.825  29.729  17.449  0.00  0.00    +0.160 C 
BRANCH  54  57
ATOM     55  C   LEU A   2       9.708  30.462  16.552  0.00  0.00    +0.241 C 
ATOM     56  O   LEU A   2       9.068  29.723  17.303  0.00  0.00    -0.273 OA
ATOM     57  N   ASP A   3      11.016  30.618  16.609  0.00  0.00    -0.297 N 
ATOM     58  H   ASP A   3      11.474  31.372  16.058  0.00  0.00    +0.150 HD
BRANCH  55  59
ATOM     59  CA  LEU A   2       8.965  31.187  15.459  0.00  0.00    +0.149 C 
BRANCH  59  61
ATOM     60  C   LEU A   1       9.112  29.535  13.686  0.00  0.00    +0.238 C 
ATOM     61  N   LEU A   2       8.367  30.166  14.612  0.00  0.00    -0.297 N 
ATOM     62  H   LEU A   2       7.362  29.923  14.723  0.00  0.00    +0.150 HD
ATOM     63  O   LEU A   1      10.242  29.865  13.382  0.00  0.00    -0.274 OA
BRANCH  60  64
ATOM     64  CA  LEU A   1       8.485  28.322  13.004  0.00  0.00    +0.145 C 
BRANCH  64  65
ATOM     65  N   LEU A   1       8.694  28.456  11.578  0.00  0.00    -0.238 NA
ATOM     66  H   LEU A   1       9.557  28.059  11.155  0.00  0.00    +0.142 HD
ENDBRANCH  64  65
BRANCH  64  67
ATOM     67  CB  LEU A   1       9.043  26.937  13.289  0.00  0.00    +0.026 C 
BRANCH  67  68
ATOM     68  CG  LEU A   1       9.101  26.440  14.706  0.00  0.00    +0.002 C 
ATOM     69  CD2 LEU A   1       7.714  26.087  15.158  0.00  0.00    +0.000 C 
ATOM     70  CD1 LEU A   1      10.009  25.208  14.704  0.00  0.00    +0.000 C 
ENDBRANCH  67  68
ENDBRANCH  64  67
ENDBRANCH  60  64
ENDBRANCH  59  61
BRANCH  59  71
ATOM     71  CB  LEU A   2       7.906  32.084  16.022  0.00  0.00    +0.029 C 
BRANCH  71  72
ATOM     72  CG  LEU A   2       6.977  32.755  15.008  0.00  0.00    +0.002 C 
ATOM     73  CD2 LEU A   2       6.021  33.604  15.836  0.00  0.00    +0.000 C 
ATOM     74  CD1 LEU A   2       7.758  33.504  13.959  0.00  0.00    +0.000 C 
ENDBRANCH  71  72
ENDBRANCH  59  71
ENDBRANCH  55  59
ENDBRANCH  54  57
BRANCH  54  75
ATOM     75  CB  ASP A   3      12.620  28.844  16.532  0.00  0.00    +0.143 C 
BRANCH  75  76
ATOM     76  CG  ASP A   3      13.238  27.794  17.334  0.00  0.00    +0.367 C 
ATOM     77  OD2 ASP A   3      13.171  27.766  18.584  0.00  0.00    -0.246 OA
ATOM     78  OD1 ASP A   3      13.803  26.834  16.696  0.00  0.00    -0.246 OA
ENDBRANCH  75  76
ENDBRANCH  54  75
ENDBRANCH  50  54
ENDBRANCH  49  51
BRANCH  49  79
ATOM     79  CB  THR A   4      12.372  31.572  21.914  0.00  0.00    +0.137 C 
ATOM     80  CG2 THR A   4      11.140  32.386  21.667  0.00  0.00    +0.034 C 
BRANCH  79  81
ATOM     81  OG1 THR A   4      11.963  30.305  22.469  0.00  0.00    -0.382 OA
ATOM     82  HG1 THR A   4      12.765  29.768  22.689  0.00  0.00    +0.210 HD
ENDBRANCH  79  81
ENDBRANCH  49  79
ENDBRANCH  45  49
ENDBRANCH  44  47
ENDBRANCH   1  44
TORSDOF 35
REMARK  Name = ../refined-set-2016/3djk/3djk_pocket.pdb
REMARK  232 active torsions:
REMARK  status: ('A' for Active; 'I' for Inactive)
REMARK    1  A    between atoms: _1  and  _3
REMARK    2  A    between atoms: _3  and  _4
REMARK    3  A    between atoms: _3  and  _6
REMARK    4  A    between atoms: _6  and  _7
REMARK    5  A    between atoms: _7  and  _8
REMARK    6  A    between atoms: _8  and  _9
REMARK    7  A    between atoms: _9  and  _11
REMARK    8  A    between atoms: _11  and  _15
REMARK    9  A    between atoms: _18  and  _20
REMARK   10  A    between atoms: _20  and  _21
REMARK   11  A    between atoms: _20  and  _23
REMARK   12  A    between atoms: _23  and  _24
REMARK   13  A    between atoms: _27  and  _29
REMARK   14  A    between atoms: _29  and  _30
REMARK   15  A    between atoms: _29  and  _32
REMARK   16  A    between atoms: _32  and  _33
REMARK   17  A    between atoms: _36  and  _38
REMARK   18  A    between atoms: _38  and  _39
REMARK   19  A    between atoms: _38  and  _41
REMARK   20  A    between atoms: _41  and  _42
REMARK   21  A    between atoms: _45  and  _47
REMARK   22  A    between atoms: _47  and  _48
REMARK   23  A    between atoms: _47  and  _50
REMARK   24  A    between atoms: _50  and  _51
REMARK   25  A    between atoms: _54  and  _56
REMARK   26  A    between atoms: _56  and  _57
REMARK   27  A    between atoms: _59  and  _61
REMARK   28  A    between atoms: _61  and  _62
REMARK   29  A    between atoms: _65  and  _67
REMARK   30  A    between atoms: _67  and  _68
REMARK   31  A    between atoms: _67  and  _70
REMARK   32  A    between atoms: _70  and  _71
REMARK   33  A    between atoms: _74  and  _76
REMARK   34  A    between atoms: _76  and  _77
REMARK   35  A    between atoms: _76  and  _79
REMARK   36  A    between atoms: _79  and  _80
REMARK   37  A    between atoms: _83  and  _85
REMARK   38  A    between atoms: _85  and  _86
REMARK   39  A    between atoms: _85  and  _88
REMARK   40  A    between atoms: _88  and  _89
REMARK   41  A    between atoms: _92  and  _94
REMARK   42  A    between atoms: _94  and  _95
REMARK   43  A    between atoms: _94  and  _97
REMARK   44  A    between atoms: _100  and  _102
REMARK   45  A    between atoms: _102  and  _103
REMARK   46  A    between atoms: _102  and  _105
REMARK   47  A    between atoms: _105  and  _106
REMARK   48  A    between atoms: _106  and  _107
REMARK   49  A    between atoms: _107  and  _108
REMARK   50  A    between atoms: _108  and  _109
REMARK   51  A    between atoms: _113  and  _115
REMARK   52  A    between atoms: _115  and  _116
REMARK   53  A    between atoms: _115  and  _118
REMARK   54  A    between atoms: _118  and  _119
REMARK   55  A    between atoms: _119  and  _120
REMARK   56  A    between atoms: _122  and  _124
REMARK   57  A    between atoms: _124  and  _125
REMARK   58  A    between atoms: _124  and  _127
REMARK   59  A    between atoms: _127  and  _128
REMARK   60  A    between atoms: _131  and  _133
REMARK   61  A    between atoms: _133  and  _134
REMARK   62  A    between atoms: _136  and  _138
REMARK   63  A    between atoms: _138  and  _139
REMARK   64  A    between atoms: _141  and  _143
REMARK   65  A    between atoms: _143  and  _144
REMARK   66  A    between atoms: _143  and  _146
REMARK   67  A    between atoms: _146  and  _147
REMARK   68  A    between atoms: _150  and  _152
REMARK   69  A    between atoms: _152  and  _153
REMARK   70  A    between atoms: _155  and  _157
REMARK   71  A    between atoms: _157  and  _158
REMARK   72  A    between atoms: _160  and  _162
REMARK   73  A    between atoms: _162  and  _163
REMARK   74  A    between atoms: _162  and  _165
REMARK   75  A    between atoms: _165  and  _166
REMARK   76  A    between atoms: _172  and  _174
REMARK   77  A    between atoms: _174  and  _175
REMARK   78  A    between atoms: _174  and  _177
REMARK   79  A    between atoms: _177  and  _178
REMARK   80  A    between atoms: _181  and  _183
REMARK   81  A    between atoms: _183  and  _184
REMARK   82  A    between atoms: _183  and  _186
REMARK   83  A    between atoms: _189  and  _191
REMARK   84  A    between atoms: _191  and  _192
REMARK   85  A    between atoms: _191  and  _194
REMARK   86  A    between atoms: _194  and  _195
REMARK   87  A    between atoms: _199  and  _200
REMARK   88  A    between atoms: _205  and  _207
REMARK   89  A    between atoms: _207  and  _208
REMARK   90  A    between atoms: _207  and  _210
REMARK   91  A    between atoms: _210  and  _211
REMARK   92  A    between atoms: _215  and  _216
REMARK   93  A    between atoms: _221  and  _223
REMARK   94  A    between atoms: _223  and  _224
REMARK   95  A    between atoms: _223  and  _226
REMARK   96  A    between atoms: _229  and  _231
REMARK   97  A    between atoms: _231  and  _232
REMARK   98  A    between atoms: _231  and  _234
REMARK   99  A    between atoms: _234  and  _235
REMARK  100  A    between atoms: _240  and  _242
REMARK  101  A    between atoms: _242  and  _243
REMARK  102  A    between atoms: _242  and  _245
REMARK  103  A    between atoms: _245  and  _246
REMARK  104  A    between atoms: _249  and  _251
REMARK  105  A    between atoms: _251  and  _252
REMARK  106  A    between atoms: _251  and  _254
REMARK  107  A    between atoms: _254  and  _255
REMARK  108  A    between atoms: _258  and  _260
REMARK  109  A    between atoms: _260  and  _261
REMARK  110  A    between atoms: _263  and  _265
REMARK  111  A    between atoms: _265  and  _266
REMARK  112  A    between atoms: _265  and  _268
REMARK  113  A    between atoms: _268  and  _269
REMARK  114  A    between atoms: _269  and  _270
REMARK  115  A    between atoms: _270  and  _271
REMARK  116  A    between atoms: _280  and  _282
REMARK  117  A    between atoms: _282  and  _283
REMARK  118  A    between atoms: _282  and  _285
REMARK  119  A    between atoms: _285  and  _286
REMARK  120  A    between atoms: _291  and  _293
REMARK  121  A    between atoms: _293  and  _294
REMARK  122  A    between atoms: _293  and  _296
REMARK  123  A    between atoms: _296  and  _297
REMARK  124  A    between atoms: _297  and  _298
REMARK  125  A    between atoms: _298  and  _299
REMARK  126  A    between atoms: _308  and  _310
REMARK  127  A    between atoms: _310  and  _311
REMARK  128  A    between atoms: _310  and  _313
REMARK  129  A    between atoms: _313  and  _314
REMARK  130  A    between atoms: _317  and  _319
REMARK  131  A    between atoms: _319  and  _320
REMARK  132  A    between atoms: _319  and  _322
REMARK  133  A    between atoms: _322  and  _323
REMARK  134  A    between atoms: _326  and  _328
REMARK  135  A    between atoms: _328  and  _329
REMARK  136  A    between atoms: _328  and  _331
REMARK  137  A    between atoms: _331  and  _332
REMARK  138  A    between atoms: _335  and  _337
REMARK  139  A    between atoms: _337  and  _338
REMARK  140  A    between atoms: _337  and  _340
REMARK  141  A    between atoms: _340  and  _341
REMARK  142  A    between atoms: _344  and  _346
REMARK  143  A    between atoms: _346  and  _347
REMARK  144  A    between atoms: _349  and  _351
REMARK  145  A    between atoms: _351  and  _352
REMARK  146  A    between atoms: _355  and  _357
REMARK  147  A    between atoms: _357  and  _358
REMARK  148  A    between atoms: _357  and  _360
REMARK  149  A    between atoms: _360  and  _361
REMARK  150  A    between atoms: _364  and  _366
REMARK  151  A    between atoms: _366  and  _367
REMARK  152  A    between atoms: _366  and  _369
REMARK  153  A    between atoms: _369  and  _370
REMARK  154  A    between atoms: _373  and  _375
REMARK  155  A    between atoms: _375  and  _376
REMARK  156  A    between atoms: _375  and  _378
REMARK  157  A    between atoms: _378  and  _379
REMARK  158  A    between atoms: _382  and  _384
REMARK  159  A    between atoms: _384  and  _385
REMARK  160  A    between atoms: _384  and  _387
REMARK  161  A    between atoms: _390  and  _392
REMARK  162  A    between atoms: _392  and  _393
REMARK  163  A    between atoms: _392  and  _395
REMARK  164  A    between atoms: _395  and  _396
REMARK  165  A    between atoms: _396  and  _397
REMARK  166  A    between atoms: _397  and  _398
REMARK  167  A    between atoms: _398  and  _399
REMARK  168  A    between atoms: _403  and  _405
REMARK  169  A    between atoms: _405  and  _406
REMARK  170  A    between atoms: _405  and  _408
REMARK  171  A    between atoms: _408  and  _409
REMARK  172  A    between atoms: _409  and  _410
REMARK  173  A    between atoms: _412  and  _414
REMARK  174  A    between atoms: _414  and  _415
REMARK  175  A    between atoms: _414  and  _417
REMARK  176  A    between atoms: _417  and  _418
REMARK  177  A    between atoms: _421  and  _423
REMARK  178  A    between atoms: _423  and  _424
REMARK  179  A    between atoms: _426  and  _428
REMARK  180  A    between atoms: _428  and  _429
REMARK  181  A    between atoms: _431  and  _433
REMARK  182  A    between atoms: _433  and  _434
REMARK  183  A    between atoms: _433  and  _436
REMARK  184  A    between atoms: _436  and  _437
REMARK  185  A    between atoms: _440  and  _442
REMARK  186  A    between atoms: _442  and  _443
REMARK  187  A    between atoms: _445  and  _447
REMARK  188  A    between atoms: _447  and  _448
REMARK  189  A    between atoms: _450  and  _452
REMARK  190  A    between atoms: _452  and  _453
REMARK  191  A    between atoms: _452  and  _455
REMARK  192  A    between atoms: _455  and  _456
REMARK  193  A    between atoms: _462  and  _464
REMARK  194  A    between atoms: _464  and  _465
REMARK  195  A    between atoms: _464  and  _467
REMARK  196  A    between atoms: _467  and  _468
REMARK  197  A    between atoms: _471  and  _473
REMARK  198  A    between atoms: _473  and  _474
REMARK  199  A    between atoms: _473  and  _476
REMARK  200  A    between atoms: _476  and  _477
REMARK  201  A    between atoms: _480  and  _482
REMARK  202  A    between atoms: _482  and  _483
REMARK  203  A    between atoms: _482  and  _485
REMARK  204  A    between atoms: _485  and  _486
REMARK  205  A    between atoms: _490  and  _491
REMARK  206  A    between atoms: _496  and  _498
REMARK  207  A    between atoms: _498  and  _499
REMARK  208  A    between atoms: _498  and  _501
REMARK  209  A    between atoms: _504  and  _506
REMARK  210  A    between atoms: _506  and  _507
REMARK  211  A    between atoms: _506  and  _509
REMARK  212  A    between atoms: _509  and  _510
REMARK  213  A    between atoms: _515  and  _517
REMARK  214  A    between atoms: _517  and  _518
REMARK  215  A    between atoms: _517  and  _520
REMARK  216  A    between atoms: _520  and  _521
REMARK  217  A    between atoms: _524  and  _526
REMARK  218  A    between atoms: _526  and  _527
REMARK  219  A    between atoms: _526  and  _529
REMARK  220  A    between atoms: _529  and  _530
REMARK  221  A    between atoms: _533  and  _535
REMARK  222  A    between atoms: _535  and  _536
REMARK  223  A    between atoms: _538  and  _540
REMARK  224  A    between atoms: _540  and  _541
REMARK  225  A    between atoms: _540  and  _543
REMARK  226  A    between atoms: _543  and  _544
REMARK  227  A    between atoms: _544  and  _545
REMARK  228  A    between atoms: _545  and  _546
REMARK  229  A    between atoms: _555  and  _557
REMARK  230  A    between atoms: _557  and  _558
REMARK  231  A    between atoms: _557  and  _560
REMARK  232  A    between atoms: _560  and  _561
REMARK                            x       y       z     vdW  Elec       q    Type
REMARK                         _______ _______ _______ _____ _____    ______ ____
ROOT
ATOM      1  C   GLY A   5      21.474  19.641  17.541  0.00  0.00    +0.243 C 
ATOM      2  N   ILE A   6      20.236  19.272  17.882  0.00  0.00    -0.297 N 
ATOM      3  H   ILE A   6      19.461  19.959  17.978  0.00  0.00    +0.150 HD
ATOM      4  O   GLY A   5      22.408  18.891  17.466  0.00  0.00    -0.273 OA
ENDROOT
BRANCH   1   5
ATOM      5  CA  GLY A   5      21.647  21.128  17.257  0.00  0.00    +0.176 C 
BRANCH   5   8
ATOM      6  C   GLY A   4      23.389  22.423  16.162  0.00  0.00    +0.243 C 
ATOM      7  O   GLY A   4      23.031  23.424  16.777  0.00  0.00    -0.273 OA
ATOM      8  N   GLY A   5      22.781  21.286  16.363  0.00  0.00    -0.295 N 
ATOM      9  H   GLY A   5      23.127  20.447  15.855  0.00  0.00    +0.150 HD
BRANCH   6  10
ATOM     10  CA  GLY A   4      24.521  22.409  15.211  0.00  0.00    +0.176 C 
BRANCH  10  12
ATOM     11  C   ILE A   3      24.879  23.687  13.204  0.00  0.00    +0.241 C 
ATOM     12  N   GLY A   4      24.716  23.656  14.545  0.00  0.00    -0.295 N 
ATOM     13  H   GLY A   4      24.733  24.541  15.092  0.00  0.00    +0.150 HD
ATOM     14  O   ILE A   3      24.734  22.734  12.478  0.00  0.00    -0.273 OA
BRANCH  11  15
ATOM     15  CA  ILE A   3      25.348  25.032  12.662  0.00  0.00    +0.149 C 
BRANCH  15  18
ATOM     16  C   MET A   2      27.409  25.376  11.372  0.00  0.00    +0.241 C 
ATOM     17  O   MET A   2      27.885  26.146  12.198  0.00  0.00    -0.273 OA
ATOM     18  N   ILE A   3      26.192  24.808  11.488  0.00  0.00    -0.297 N 
ATOM     19  H   ILE A   3      25.844  24.195  10.723  0.00  0.00    +0.150 HD
BRANCH  16  20
ATOM     20  CA  MET A   2      28.203  25.003  10.131  0.00  0.00    +0.149 C 
BRANCH  20  22
ATOM     21  C   LYS A   1      28.427  26.653   8.358  0.00  0.00    +0.238 C 
ATOM     22  N   MET A   2      28.751  26.195   9.550  0.00  0.00    -0.297 N 
ATOM     23  H   MET A   2      29.448  26.731  10.105  0.00  0.00    +0.150 HD
ATOM     24  O   LYS A   1      27.708  26.010   7.579  0.00  0.00    -0.274 OA
BRANCH  21  25
ATOM     25  CA  LYS A   1      28.878  28.055   7.952  0.00  0.00    +0.145 C 
BRANCH  25  26
ATOM     26  N   LYS A   1      28.989  28.106   6.506  0.00  0.00    -0.238 NA
ATOM     27  H   LYS A   1      28.354  27.507   5.942  0.00  0.00    +0.142 HD
ENDBRANCH  25  26
BRANCH  25  28
ATOM     28  CB  LYS A   1      27.882  29.117   8.426  0.00  0.00    +0.026 C 
BRANCH  28  29
ATOM     29  CG  LYS A   1      27.778  29.367   9.903  0.00  0.00    -0.000 C 
BRANCH  29  30
ATOM     30  CD  LYS A   1      26.828  30.421  10.259  0.00  0.00    -0.024 C 
BRANCH  30  31
ATOM     31  CE  LYS A   1      26.572  30.644  11.722  0.00  0.00    -0.086 C 
BRANCH  31  32
ATOM     32  NZ  LYS A   1      27.722  31.136  12.429  0.00  0.00    +0.380 N 
ATOM     33  HZ1 LYS A   1      27.480  31.269  13.432  0.00  0.00    -0.089 HD
ATOM     34  HZ2 LYS A   1      28.498  30.449  12.346  0.00  0.00    -0.089 HD
ATOM     35  HZ3 LYS A   1      28.017  32.045  12.019  0.00  0.00    -0.089 HD
ENDBRANCH  31  32
ENDBRANCH  30  31
ENDBRANCH  29  30
ENDBRANCH  28  29
ENDBRANCH  25  28
ENDBRANCH  21  25
ENDBRANCH  20  22
BRANCH  20  36
ATOM     36  CB  MET A   2      29.313  24.039  10.579  0.00  0.00    +0.041 C 
BRANCH  36  37
ATOM     37  CG  MET A   2      30.076  23.350   9.440  0.00  0.00    +0.060 C 
BRANCH  37  38
ATOM     38  SD  MET A   2      29.122  21.977   8.828  0.00  0.00    -0.139 S 
ATOM     39  CE  MET A   2      29.817  20.660   9.883  0.00  0.00    +0.069 C 
ENDBRANCH  37  38
ENDBRANCH  36  37
ENDBRANCH  20  36
ENDBRANCH  16  20
ENDBRANCH  15  18
BRANCH  15  40
ATOM     40  CB  ILE A   3      24.151  25.943  12.365  0.00  0.00    +0.027 C 
ATOM     41  CG2 ILE A   3      24.606  27.358  12.024  0.00  0.00    +0.002 C 
BRANCH  40  42
ATOM     42  CG1 ILE A   3      23.223  25.368  11.308  0.00  0.00    +0.002 C 
ATOM     43  CD1 ILE A   3      21.946  26.162  11.116  0.00  0.00    +0.000 C 
ENDBRANCH  40  42
ENDBRANCH  15  40
ENDBRANCH  11  15
ENDBRANCH  10  12
ENDBRANCH   6  10
ENDBRANCH   5   8
ENDBRANCH   1   5
BRANCH   2  44
ATOM     44  CA  ILE A   6      20.037  17.829  18.114  0.00  0.00    +0.149 C 
BRANCH  44  45
ATOM     45  C   ILE A   6      20.316  17.084  16.853  0.00  0.00    +0.241 C 
ATOM     46  N   GLY A   7      21.027  15.997  16.941  0.00  0.00    -0.295 N 
ATOM     47  H   GLY A   7      21.354  15.675  17.874  0.00  0.00    +0.150 HD
ATOM     48  O   ILE A   6      19.848  17.467  15.782  0.00  0.00    -0.273 OA
BRANCH  46  49
ATOM     49  CA  GLY A   7      21.365  15.240  15.781  0.00  0.00    +0.176 C 
BRANCH  49  50
ATOM     50  C   GLY A   7      22.649  15.689  15.117  0.00  0.00    +0.243 C 
ATOM     51  N   GLY A   8      23.256  16.772  15.502  0.00  0.00    -0.295 N 
ATOM     52  H   GLY A   8      22.800  17.371  16.219  0.00  0.00    +0.150 HD
ATOM     53  O   GLY A   7      23.055  14.999  14.196  0.00  0.00    -0.273 OA
BRANCH  51  54
ATOM     54  CA  GLY A   8      24.553  17.182  14.969  0.00  0.00    +0.176 C 
BRANCH  54  55
ATOM     55  C   GLY A   8      24.435  18.411  14.114  0.00  0.00    +0.243 C 
ATOM     56  O   GLY A   8      23.576  19.255  14.299  0.00  0.00    -0.273 OA
ATOM     57  N   PHE A   9      25.379  18.557  13.169  0.00  0.00    -0.297 N 
ATOM     58  H   PHE A   9      26.001  17.748  12.967  0.00  0.00    +0.150 HD
BRANCH  57  59
ATOM     59  CA  PHE A   9      25.576  19.757  12.428  0.00  0.00    +0.153 C 
BRANCH  59  60
ATOM     60  C   PHE A   9      25.151  19.631  10.976  0.00  0.00    +0.241 C 
ATOM     61  O   PHE A   9      25.198  18.521  10.403  0.00  0.00    -0.273 OA
ATOM     62  N   ILE A  10      24.754  20.743  10.391  0.00  0.00    -0.298 N 
ATOM     63  H   ILE A  10      24.584  21.580  10.985  0.00  0.00    +0.150 HD
BRANCH  62  64
ATOM     64  CA  ILE A  10      24.543  20.858   8.966  0.00  0.00    +0.137 C 
BRANCH  64  65
ATOM     65  CB  ILE A  10      23.085  21.049   8.572  0.00  0.00    +0.026 C 
ATOM     66  CG2 ILE A  10      22.223  19.783   8.908  0.00  0.00    +0.002 C 
BRANCH  65  67
ATOM     67  CG1 ILE A  10      22.448  22.296   9.086  0.00  0.00    +0.002 C 
ATOM     68  CD1 ILE A  10      21.072  22.589   8.539  0.00  0.00    +0.000 C 
ENDBRANCH  65  67
ENDBRANCH  64  65
BRANCH  64  69
ATOM     69  C   ILE A  10      25.397  22.029   8.437  0.00  0.00    +0.227 C 
ATOM     70  O   ILE A  10      25.618  23.021   9.146  0.00  0.00    -0.286 OA
ENDBRANCH  64  69
ENDBRANCH  62  64
ENDBRANCH  59  60
BRANCH  59  71
ATOM     71  CB  PHE A   9      27.049  20.169  12.457  0.00  0.00    +0.055 C 
BRANCH  71  72
ATOM     72  CG  PHE A   9      27.497  20.787  13.778  0.00  0.00    -0.020 A 
ATOM     73  CD2 PHE A   9      27.710  19.991  14.885  0.00  0.00    -0.004 A 
ATOM     74  CE2 PHE A   9      28.113  20.558  16.063  0.00  0.00    -0.000 A 
ATOM     75  CZ  PHE A   9      28.269  21.922  16.200  0.00  0.00    -0.000 A 
ATOM     76  CE1 PHE A   9      28.078  22.701  15.089  0.00  0.00    -0.000 A 
ATOM     77  CD1 PHE A   9      27.734  22.137  13.879  0.00  0.00    -0.004 A 
ENDBRANCH  71  72
ENDBRANCH  59  71
ENDBRANCH  57  59
ENDBRANCH  54  55
ENDBRANCH  51  54
ENDBRANCH  49  50
ENDBRANCH  46  49
ENDBRANCH  44  45
BRANCH  44  78
ATOM     78  CB  ILE A   6      18.646  17.657  18.715  0.00  0.00    +0.027 C 
ATOM     79  CG2 ILE A   6      18.200  16.204  18.606  0.00  0.00    +0.002 C 
BRANCH  78  80
ATOM     80  CG1 ILE A   6      18.642  18.108  20.205  0.00  0.00    +0.002 C 
ATOM     81  CD1 ILE A   6      17.346  18.233  20.879  0.00  0.00    +0.000 C 
ENDBRANCH  78  80
ENDBRANCH  44  78
ENDBRANCH   2  44
TORSDOF 36
REMARK  Name = ../refined-set-2016/3djk/3djk_pocket.pdb
REMARK  232 active torsions:
REMARK  status: ('A' for Active; 'I' for Inactive)
REMARK    1  A    between atoms: _1  and  _3
REMARK    2  A    between atoms: _3  and  _4
REMARK    3  A    between atoms: _3  and  _6
REMARK    4  A    between atoms: _6  and  _7
REMARK    5  A    between atoms: _7  and  _8
REMARK    6  A    between atoms: _8  and  _9
REMARK    7  A    between atoms: _9  and  _11
REMARK    8  A    between atoms: _11  and  _15
REMARK    9  A    between atoms: _18  and  _20
REMARK   10  A    between atoms: _20  and  _21
REMARK   11  A    between atoms: _20  and  _23
REMARK   12  A    between atoms: _23  and  _24
REMARK   13  A    between atoms: _27  and  _29
REMARK   14  A    between atoms: _29  and  _30
REMARK   15  A    between atoms: _29  and  _32
REMARK   16  A    between atoms: _32  and  _33
REMARK   17  A    between atoms: _36  and  _38
REMARK   18  A    between atoms: _38  and  _39
REMARK   19  A    between atoms: _38  and  _41
REMARK   20  A    between atoms: _41  and  _42
REMARK   21  A    between atoms: _45  and  _47
REMARK   22  A    between atoms: _47  and  _48
REMARK   23  A    between atoms: _47  and  _50
REMARK   24  A    between atoms: _50  and  _51
REMARK   25  A    between atoms: _54  and  _56
REMARK   26  A    between atoms: _56  and  _57
REMARK   27  A    between atoms: _59  and  _61
REMARK   28  A    between atoms: _61  and  _62
REMARK   29  A    between atoms: _65  and  _67
REMARK   30  A    between atoms: _67  and  _68
REMARK   31  A    between atoms: _67  and  _70
REMARK   32  A    between atoms: _70  and  _71
REMARK   33  A    between atoms: _74  and  _76
REMARK   34  A    between atoms: _76  and  _77
REMARK   35  A    between atoms: _76  and  _79
REMARK   36  A    between atoms: _79  and  _80
REMARK   37  A    between atoms: _83  and  _85
REMARK   38  A    between atoms: _85  and  _86
REMARK   39  A    between atoms: _85  and  _88
REMARK   40  A    between atoms: _88  and  _89
REMARK   41  A    between atoms: _92  and  _94
REMARK   42  A    between atoms: _94  and  _95
REMARK   43  A    between atoms: _94  and  _97
REMARK   44  A    between atoms: _100  and  _102
REMARK   45  A    between atoms: _102  and  _103
REMARK   46  A    between atoms: _102  and  _105
REMARK   47  A    between atoms: _105  and  _106
REMARK   48  A    between atoms: _106  and  _107
REMARK   49  A    between atoms: _107  and  _108
REMARK   50  A    between atoms: _108  and  _109
REMARK   51  A    between atoms: _113  and  _115
REMARK   52  A    between atoms: _115  and  _116
REMARK   53  A    between atoms: _115  and  _118
REMARK   54  A    between atoms: _118  and  _119
REMARK   55  A    between atoms: _119  and  _120
REMARK   56  A    between atoms: _122  and  _124
REMARK   57  A    between atoms: _124  and  _125
REMARK   58  A    between atoms: _124  and  _127
REMARK   59  A    between atoms: _127  and  _128
REMARK   60  A    between atoms: _131  and  _133
REMARK   61  A    between atoms: _133  and  _134
REMARK   62  A    between atoms: _136  and  _138
REMARK   63  A    between atoms: _138  and  _139
REMARK   64  A    between atoms: _141  and  _143
REMARK   65  A    between atoms: _143  and  _144
REMARK   66  A    between atoms: _143  and  _146
REMARK   67  A    between atoms: _146  and  _147
REMARK   68  A    between atoms: _150  and  _152
REMARK   69  A    between atoms: _152  and  _153
REMARK   70  A    between atoms: _155  and  _157
REMARK   71  A    between atoms: _157  and  _158
REMARK   72  A    between atoms: _160  and  _162
REMARK   73  A    between atoms: _162  and  _163
REMARK   74  A    between atoms: _162  and  _165
REMARK   75  A    between atoms: _165  and  _166
REMARK   76  A    between atoms: _172  and  _174
REMARK   77  A    between atoms: _174  and  _175
REMARK   78  A    between atoms: _174  and  _177
REMARK   79  A    between atoms: _177  and  _178
REMARK   80  A    between atoms: _181  and  _183
REMARK   81  A    between atoms: _183  and  _184
REMARK   82  A    between atoms: _183  and  _186
REMARK   83  A    between atoms: _189  and  _191
REMARK   84  A    between atoms: _191  and  _192
REMARK   85  A    between atoms: _191  and  _194
REMARK   86  A    between atoms: _194  and  _195
REMARK   87  A    between atoms: _199  and  _200
REMARK   88  A    between atoms: _205  and  _207
REMARK   89  A    between atoms: _207  and  _208
REMARK   90  A    between atoms: _207  and  _210
REMARK   91  A    between atoms: _210  and  _211
REMARK   92  A    between atoms: _215  and  _216
REMARK   93  A    between atoms: _221  and  _223
REMARK   94  A    between atoms: _223  and  _224
REMARK   95  A    between atoms: _223  and  _226
REMARK   96  A    between atoms: _229  and  _231
REMARK   97  A    between atoms: _231  and  _232
REMARK   98  A    between atoms: _231  and  _234
REMARK   99  A    between atoms: _234  and  _235
REMARK  100  A    between atoms: _240  and  _242
REMARK  101  A    between atoms: _242  and  _243
REMARK  102  A    between atoms: _242  and  _245
REMARK  103  A    between atoms: _245  and  _246
REMARK  104  A    between atoms: _249  and  _251
REMARK  105  A    between atoms: _251  and  _252
REMARK  106  A    between atoms: _251  and  _254
REMARK  107  A    between atoms: _254  and  _255
REMARK  108  A    between atoms: _258  and  _260
REMARK  109  A    between atoms: _260  and  _261
REMARK  110  A    between atoms: _263  and  _265
REMARK  111  A    between atoms: _265  and  _266
REMARK  112  A    between atoms: _265  and  _268
REMARK  113  A    between atoms: _268  and  _269
REMARK  114  A    between atoms: _269  and  _270
REMARK  115  A    between atoms: _270  and  _271
REMARK  116  A    between atoms: _280  and  _282
REMARK  117  A    between atoms: _282  and  _283
REMARK  118  A    between atoms: _282  and  _285
REMARK  119  A    between atoms: _285  and  _286
REMARK  120  A    between atoms: _291  and  _293
REMARK  121  A    between atoms: _293  and  _294
REMARK  122  A    between atoms: _293  and  _296
REMARK  123  A    between atoms: _296  and  _297
REMARK  124  A    between atoms: _297  and  _298
REMARK  125  A    between atoms: _298  and  _299
REMARK  126  A    between atoms: _308  and  _310
REMARK  127  A    between atoms: _310  and  _311
REMARK  128  A    between atoms: _310  and  _313
REMARK  129  A    between atoms: _313  and  _314
REMARK  130  A    between atoms: _317  and  _319
REMARK  131  A    between atoms: _319  and  _320
REMARK  132  A    between atoms: _319  and  _322
REMARK  133  A    between atoms: _322  and  _323
REMARK  134  A    between atoms: _326  and  _328
REMARK  135  A    between atoms: _328  and  _329
REMARK  136  A    between atoms: _328  and  _331
REMARK  137  A    between atoms: _331  and  _332
REMARK  138  A    between atoms: _335  and  _337
REMARK  139  A    between atoms: _337  and  _338
REMARK  140  A    between atoms: _337  and  _340
REMARK  141  A    between atoms: _340  and  _341
REMARK  142  A    between atoms: _344  and  _346
REMARK  143  A    between atoms: _346  and  _347
REMARK  144  A    between atoms: _349  and  _351
REMARK  145  A    between atoms: _351  and  _352
REMARK  146  A    between atoms: _355  and  _357
REMARK  147  A    between atoms: _357  and  _358
REMARK  148  A    between atoms: _357  and  _360
REMARK  149  A    between atoms: _360  and  _361
REMARK  150  A    between atoms: _364  and  _366
REMARK  151  A    between atoms: _366  and  _367
REMARK  152  A    between atoms: _366  and  _369
REMARK  153  A    between atoms: _369  and  _370
REMARK  154  A    between atoms: _373  and  _375
REMARK  155  A    between atoms: _375  and  _376
REMARK  156  A    between atoms: _375  and  _378
REMARK  157  A    between atoms: _378  and  _379
REMARK  158  A    between atoms: _382  and  _384
REMARK  159  A    between atoms: _384  and  _385
REMARK  160  A    between atoms: _384  and  _387
REMARK  161  A    between atoms: _390  and  _392
REMARK  162  A    between atoms: _392  and  _393
REMARK  163  A    between atoms: _392  and  _395
REMARK  164  A    between atoms: _395  and  _396
REMARK  165  A    between atoms: _396  and  _397
REMARK  166  A    between atoms: _397  and  _398
REMARK  167  A    between atoms: _398  and  _399
REMARK  168  A    between atoms: _403  and  _405
REMARK  169  A    between atoms: _405  and  _406
REMARK  170  A    between atoms: _405  and  _408
REMARK  171  A    between atoms: _408  and  _409
REMARK  172  A    between atoms: _409  and  _410
REMARK  173  A    between atoms: _412  and  _414
REMARK  174  A    between atoms: _414  and  _415
REMARK  175  A    between atoms: _414  and  _417
REMARK  176  A    between atoms: _417  and  _418
REMARK  177  A    between atoms: _421  and  _423
REMARK  178  A    between atoms: _423  and  _424
REMARK  179  A    between atoms: _426  and  _428
REMARK  180  A    between atoms: _428  and  _429
REMARK  181  A    between atoms: _431  and  _433
REMARK  182  A    between atoms: _433  and  _434
REMARK  183  A    between atoms: _433  and  _436
REMARK  184  A    between atoms: _436  and  _437
REMARK  185  A    between atoms: _440  and  _442
REMARK  186  A    between atoms: _442  and  _443
REMARK  187  A    between atoms: _445  and  _447
REMARK  188  A    between atoms: _447  and  _448
REMARK  189  A    between atoms: _450  and  _452
REMARK  190  A    between atoms: _452  and  _453
REMARK  191  A    between atoms: _452  and  _455
REMARK  192  A    between atoms: _455  and  _456
REMARK  193  A    between atoms: _462  and  _464
REMARK  194  A    between atoms: _464  and  _465
REMARK  195  A    between atoms: _464  and  _467
REMARK  196  A    between atoms: _467  and  _468
REMARK  197  A    between atoms: _471  and  _473
REMARK  198  A    between atoms: _473  and  _474
REMARK  199  A    between atoms: _473  and  _476
REMARK  200  A    between atoms: _476  and  _477
REMARK  201  A    between atoms: _480  and  _482
REMARK  202  A    between atoms: _482  and  _483
REMARK  203  A    between atoms: _482  and  _485
REMARK  204  A    between atoms: _485  and  _486
REMARK  205  A    between atoms: _490  and  _491
REMARK  206  A    between atoms: _496  and  _498
REMARK  207  A    between atoms: _498  and  _499
REMARK  208  A    between atoms: _498  and  _501
REMARK  209  A    between atoms: _504  and  _506
REMARK  210  A    between atoms: _506  and  _507
REMARK  211  A    between atoms: _506  and  _509
REMARK  212  A    between atoms: _509  and  _510
REMARK  213  A    between atoms: _515  and  _517
REMARK  214  A    between atoms: _517  and  _518
REMARK  215  A    between atoms: _517  and  _520
REMARK  216  A    between atoms: _520  and  _521
REMARK  217  A    between atoms: _524  and  _526
REMARK  218  A    between atoms: _526  and  _527
REMARK  219  A    between atoms: _526  and  _529
REMARK  220  A    between atoms: _529  and  _530
REMARK  221  A    between atoms: _533  and  _535
REMARK  222  A    between atoms: _535  and  _536
REMARK  223  A    between atoms: _538  and  _540
REMARK  224  A    between atoms: _540  and  _541
REMARK  225  A    between atoms: _540  and  _543
REMARK  226  A    between atoms: _543  and  _544
REMARK  227  A    between atoms: _544  and  _545
REMARK  228  A    between atoms: _545  and  _546
REMARK  229  A    between atoms: _555  and  _557
REMARK  230  A    between atoms: _557  and  _558
REMARK  231  A    between atoms: _557  and  _560
REMARK  232  A    between atoms: _560  and  _561
REMARK                            x       y       z     vdW  Elec       q    Type
REMARK                         _______ _______ _______ _____ _____    ______ ____
ROOT
ATOM      1  CA  VAL A   1      24.571  26.205   5.425  0.00  0.00    +0.133 C 
ENDROOT
BRANCH   1   2
ATOM      2  CB  VAL A   1      23.702  26.825   6.506  0.00  0.00    +0.023 C 
ATOM      3  CG2 VAL A   1      24.524  27.512   7.572  0.00  0.00    +0.002 C 
ATOM      4  CG1 VAL A   1      22.869  25.764   7.240  0.00  0.00    +0.002 C 
ENDBRANCH   1   2
BRANCH   1   5
ATOM      5  N   VAL A   1      25.500  25.206   5.961  0.00  0.00    -0.239 NA
ATOM      6  H   VAL A   1      26.328  25.532   6.499  0.00  0.00    +0.142 HD
ENDBRANCH   1   5
BRANCH   1   7
ATOM      7  C   VAL A   1      25.398  27.275   4.684  0.00  0.00    +0.224 C 
ATOM      8  O   VAL A   1      26.590  27.438   4.866  0.00  0.00    -0.287 OA
ENDBRANCH   1   7
TORSDOF 3
REMARK  Name = ../refined-set-2016/3djk/3djk_pocket.pdb
REMARK  232 active torsions:
REMARK  status: ('A' for Active; 'I' for Inactive)
REMARK    1  A    between atoms: _1  and  _3
REMARK    2  A    between atoms: _3  and  _4
REMARK    3  A    between atoms: _3  and  _6
REMARK    4  A    between atoms: _6  and  _7
REMARK    5  A    between atoms: _7  and  _8
REMARK    6  A    between atoms: _8  and  _9
REMARK    7  A    between atoms: _9  and  _11
REMARK    8  A    between atoms: _11  and  _15
REMARK    9  A    between atoms: _18  and  _20
REMARK   10  A    between atoms: _20  and  _21
REMARK   11  A    between atoms: _20  and  _23
REMARK   12  A    between atoms: _23  and  _24
REMARK   13  A    between atoms: _27  and  _29
REMARK   14  A    between atoms: _29  and  _30
REMARK   15  A    between atoms: _29  and  _32
REMARK   16  A    between atoms: _32  and  _33
REMARK   17  A    between atoms: _36  and  _38
REMARK   18  A    between atoms: _38  and  _39
REMARK   19  A    between atoms: _38  and  _41
REMARK   20  A    between atoms: _41  and  _42
REMARK   21  A    between atoms: _45  and  _47
REMARK   22  A    between atoms: _47  and  _48
REMARK   23  A    between atoms: _47  and  _50
REMARK   24  A    between atoms: _50  and  _51
REMARK   25  A    between atoms: _54  and  _56
REMARK   26  A    between atoms: _56  and  _57
REMARK   27  A    between atoms: _59  and  _61
REMARK   28  A    between atoms: _61  and  _62
REMARK   29  A    between atoms: _65  and  _67
REMARK   30  A    between atoms: _67  and  _68
REMARK   31  A    between atoms: _67  and  _70
REMARK   32  A    between atoms: _70  and  _71
REMARK   33  A    between atoms: _74  and  _76
REMARK   34  A    between atoms: _76  and  _77
REMARK   35  A    between atoms: _76  and  _79
REMARK   36  A    between atoms: _79  and  _80
REMARK   37  A    between atoms: _83  and  _85
REMARK   38  A    between atoms: _85  and  _86
REMARK   39  A    between atoms: _85  and  _88
REMARK   40  A    between atoms: _88  and  _89
REMARK   41  A    between atoms: _92  and  _94
REMARK   42  A    between atoms: _94  and  _95
REMARK   43  A    between atoms: _94  and  _97
REMARK   44  A    between atoms: _100  and  _102
REMARK   45  A    between atoms: _102  and  _103
REMARK   46  A    between atoms: _102  and  _105
REMARK   47  A    between atoms: _105  and  _106
REMARK   48  A    between atoms: _106  and  _107
REMARK   49  A    between atoms: _107  and  _108
REMARK   50  A    between atoms: _108  and  _109
REMARK   51  A    between atoms: _113  and  _115
REMARK   52  A    between atoms: _115  and  _116
REMARK   53  A    between atoms: _115  and  _118
REMARK   54  A    between atoms: _118  and  _119
REMARK   55  A    between atoms: _119  and  _120
REMARK   56  A    between atoms: _122  and  _124
REMARK   57  A    between atoms: _124  and  _125
REMARK   58  A    between atoms: _124  and  _127
REMARK   59  A    between atoms: _127  and  _128
REMARK   60  A    between atoms: _131  and  _133
REMARK   61  A    between atoms: _133  and  _134
REMARK   62  A    between atoms: _136  and  _138
REMARK   63  A    between atoms: _138  and  _139
REMARK   64  A    between atoms: _141  and  _143
REMARK   65  A    between atoms: _143  and  _144
REMARK   66  A    between atoms: _143  and  _146
REMARK   67  A    between atoms: _146  and  _147
REMARK   68  A    between atoms: _150  and  _152
REMARK   69  A    between atoms: _152  and  _153
REMARK   70  A    between atoms: _155  and  _157
REMARK   71  A    between atoms: _157  and  _158
REMARK   72  A    between atoms: _160  and  _162
REMARK   73  A    between atoms: _162  and  _163
REMARK   74  A    between atoms: _162  and  _165
REMARK   75  A    between atoms: _165  and  _166
REMARK   76  A    between atoms: _172  and  _174
REMARK   77  A    between atoms: _174  and  _175
REMARK   78  A    between atoms: _174  and  _177
REMARK   79  A    between atoms: _177  and  _178
REMARK   80  A    between atoms: _181  and  _183
REMARK   81  A    between atoms: _183  and  _184
REMARK   82  A    between atoms: _183  and  _186
REMARK   83  A    between atoms: _189  and  _191
REMARK   84  A    between atoms: _191  and  _192
REMARK   85  A    between atoms: _191  and  _194
REMARK   86  A    between atoms: _194  and  _195
REMARK   87  A    between atoms: _199  and  _200
REMARK   88  A    between atoms: _205  and  _207
REMARK   89  A    between atoms: _207  and  _208
REMARK   90  A    between atoms: _207  and  _210
REMARK   91  A    between atoms: _210  and  _211
REMARK   92  A    between atoms: _215  and  _216
REMARK   93  A    between atoms: _221  and  _223
REMARK   94  A    between atoms: _223  and  _224
REMARK   95  A    between atoms: _223  and  _226
REMARK   96  A    between atoms: _229  and  _231
REMARK   97  A    between atoms: _231  and  _232
REMARK   98  A    between atoms: _231  and  _234
REMARK   99  A    between atoms: _234  and  _235
REMARK  100  A    between atoms: _240  and  _242
REMARK  101  A    between atoms: _242  and  _243
REMARK  102  A    between atoms: _242  and  _245
REMARK  103  A    between atoms: _245  and  _246
REMARK  104  A    between atoms: _249  and  _251
REMARK  105  A    between atoms: _251  and  _252
REMARK  106  A    between atoms: _251  and  _254
REMARK  107  A    between atoms: _254  and  _255
REMARK  108  A    between atoms: _258  and  _260
REMARK  109  A    between atoms: _260  and  _261
REMARK  110  A    between atoms: _263  and  _265
REMARK  111  A    between atoms: _265  and  _266
REMARK  112  A    between atoms: _265  and  _268
REMARK  113  A    between atoms: _268  and  _269
REMARK  114  A    between atoms: _269  and  _270
REMARK  115  A    between atoms: _270  and  _271
REMARK  116  A    between atoms: _280  and  _282
REMARK  117  A    between atoms: _282  and  _283
REMARK  118  A    between atoms: _282  and  _285
REMARK  119  A    between atoms: _285  and  _286
REMARK  120  A    between atoms: _291  and  _293
REMARK  121  A    between atoms: _293  and  _294
REMARK  122  A    between atoms: _293  and  _296
REMARK  123  A    between atoms: _296  and  _297
REMARK  124  A    between atoms: _297  and  _298
REMARK  125  A    between atoms: _298  and  _299
REMARK  126  A    between atoms: _308  and  _310
REMARK  127  A    between atoms: _310  and  _311
REMARK  128  A    between atoms: _310  and  _313
REMARK  129  A    between atoms: _313  and  _314
REMARK  130  A    between atoms: _317  and  _319
REMARK  131  A    between atoms: _319  and  _320
REMARK  132  A    between atoms: _319  and  _322
REMARK  133  A    between atoms: _322  and  _323
REMARK  134  A    between atoms: _326  and  _328
REMARK  135  A    between atoms: _328  and  _329
REMARK  136  A    between atoms: _328  and  _331
REMARK  137  A    between atoms: _331  and  _332
REMARK  138  A    between atoms: _335  and  _337
REMARK  139  A    between atoms: _337  and  _338
REMARK  140  A    between atoms: _337  and  _340
REMARK  141  A    between atoms: _340  and  _341
REMARK  142  A    between atoms: _344  and  _346
REMARK  143  A    between atoms: _346  and  _347
REMARK  144  A    between atoms: _349  and  _351
REMARK  145  A    between atoms: _351  and  _352
REMARK  146  A    between atoms: _355  and  _357
REMARK  147  A    between atoms: _357  and  _358
REMARK  148  A    between atoms: _357  and  _360
REMARK  149  A    between atoms: _360  and  _361
REMARK  150  A    between atoms: _364  and  _366
REMARK  151  A    between atoms: _366  and  _367
REMARK  152  A    between atoms: _366  and  _369
REMARK  153  A    between atoms: _369  and  _370
REMARK  154  A    between atoms: _373  and  _375
REMARK  155  A    between atoms: _375  and  _376
REMARK  156  A    between atoms: _375  and  _378
REMARK  157  A    between atoms: _378  and  _379
REMARK  158  A    between atoms: _382  and  _384
REMARK  159  A    between atoms: _384  and  _385
REMARK  160  A    between atoms: _384  and  _387
REMARK  161  A    between atoms: _390  and  _392
REMARK  162  A    between atoms: _392  and  _393
REMARK  163  A    between atoms: _392  and  _395
REMARK  164  A    between atoms: _395  and  _396
REMARK  165  A    between atoms: _396  and  _397
REMARK  166  A    between atoms: _397  and  _398
REMARK  167  A    between atoms: _398  and  _399
REMARK  168  A    between atoms: _403  and  _405
REMARK  169  A    between atoms: _405  and  _406
REMARK  170  A    between atoms: _405  and  _408
REMARK  171  A    between atoms: _408  and  _409
REMARK  172  A    between atoms: _409  and  _410
REMARK  173  A    between atoms: _412  and  _414
REMARK  174  A    between atoms: _414  and  _415
REMARK  175  A    between atoms: _414  and  _417
REMARK  176  A    between atoms: _417  and  _418
REMARK  177  A    between atoms: _421  and  _423
REMARK  178  A    between atoms: _423  and  _424
REMARK  179  A    between atoms: _426  and  _428
REMARK  180  A    between atoms: _428  and  _429
REMARK  181  A    between atoms: _431  and  _433
REMARK  182  A    between atoms: _433  and  _434
REMARK  183  A    between atoms: _433  and  _436
REMARK  184  A    between atoms: _436  and  _437
REMARK  185  A    between atoms: _440  and  _442
REMARK  186  A    between atoms: _442  and  _443
REMARK  187  A    between atoms: _445  and  _447
REMARK  188  A    between atoms: _447  and  _448
REMARK  189  A    between atoms: _450  and  _452
REMARK  190  A    between atoms: _452  and  _453
REMARK  191  A    between atoms: _452  and  _455
REMARK  192  A    between atoms: _455  and  _456
REMARK  193  A    between atoms: _462  and  _464
REMARK  194  A    between atoms: _464  and  _465
REMARK  195  A    between atoms: _464  and  _467
REMARK  196  A    between atoms: _467  and  _468
REMARK  197  A    between atoms: _471  and  _473
REMARK  198  A    between atoms: _473  and  _474
REMARK  199  A    between atoms: _473  and  _476
REMARK  200  A    between atoms: _476  and  _477
REMARK  201  A    between atoms: _480  and  _482
REMARK  202  A    between atoms: _482  and  _483
REMARK  203  A    between atoms: _482  and  _485
REMARK  204  A    between atoms: _485  and  _486
REMARK  205  A    between atoms: _490  and  _491
REMARK  206  A    between atoms: _496  and  _498
REMARK  207  A    between atoms: _498  and  _499
REMARK  208  A    between atoms: _498  and  _501
REMARK  209  A    between atoms: _504  and  _506
REMARK  210  A    between atoms: _506  and  _507
REMARK  211  A    between atoms: _506  and  _509
REMARK  212  A    between atoms: _509  and  _510
REMARK  213  A    between atoms: _515  and  _517
REMARK  214  A    between atoms: _517  and  _518
REMARK  215  A    between atoms: _517  and  _520
REMARK  216  A    between atoms: _520  and  _521
REMARK  217  A    between atoms: _524  and  _526
REMARK  218  A    between atoms: _526  and  _527
REMARK  219  A    between atoms: _526  and  _529
REMARK  220  A    between atoms: _529  and  _530
REMARK  221  A    between atoms: _533  and  _535
REMARK  222  A    between atoms: _535  and  _536
REMARK  223  A    between atoms: _538  and  _540
REMARK  224  A    between atoms: _540  and  _541
REMARK  225  A    between atoms: _540  and  _543
REMARK  226  A    between atoms: _543  and  _544
REMARK  227  A    between atoms: _544  and  _545
REMARK  228  A    between atoms: _545  and  _546
REMARK  229  A    between atoms: _555  and  _557
REMARK  230  A    between atoms: _557  and  _558
REMARK  231  A    between atoms: _557  and  _560
REMARK  232  A    between atoms: _560  and  _561
REMARK                            x       y       z     vdW  Elec       q    Type
REMARK                         _______ _______ _______ _____ _____    ______ ____
ROOT
ATOM      1  CA  LEU A   1      21.201  30.839   6.761  0.00  0.00    +0.133 C 
ENDROOT
BRANCH   1   2
ATOM      2  N   LEU A   1      20.450  32.028   7.087  0.00  0.00    -0.239 NA
ATOM      3  H   LEU A   1      19.772  31.987   7.874  0.00  0.00    +0.142 HD
ENDBRANCH   1   2
BRANCH   1   4
ATOM      4  C   LEU A   1      20.325  29.963   5.901  0.00  0.00    +0.224 C 
ATOM      5  O   LEU A   1      19.137  29.791   6.203  0.00  0.00    -0.287 OA
ENDBRANCH   1   4
BRANCH   1   6
ATOM      6  CB  LEU A   1      21.589  30.116   8.039  0.00  0.00    +0.025 C 
BRANCH   6   7
ATOM      7  CG  LEU A   1      22.293  30.951   9.080  0.00  0.00    +0.002 C 
ATOM      8  CD2 LEU A   1      22.669  30.130  10.258  0.00  0.00    +0.000 C 
ATOM      9  CD1 LEU A   1      23.509  31.681   8.503  0.00  0.00    +0.000 C 
ENDBRANCH   6   7
ENDBRANCH   1   6
TORSDOF 4
REMARK  Name = ../refined-set-2016/3djk/3djk_pocket.pdb
REMARK  232 active torsions:
REMARK  status: ('A' for Active; 'I' for Inactive)
REMARK    1  A    between atoms: _1  and  _3
REMARK    2  A    between atoms: _3  and  _4
REMARK    3  A    between atoms: _3  and  _6
REMARK    4  A    between atoms: _6  and  _7
REMARK    5  A    between atoms: _7  and  _8
REMARK    6  A    between atoms: _8  and  _9
REMARK    7  A    between atoms: _9  and  _11
REMARK    8  A    between atoms: _11  and  _15
REMARK    9  A    between atoms: _18  and  _20
REMARK   10  A    between atoms: _20  and  _21
REMARK   11  A    between atoms: _20  and  _23
REMARK   12  A    between atoms: _23  and  _24
REMARK   13  A    between atoms: _27  and  _29
REMARK   14  A    between atoms: _29  and  _30
REMARK   15  A    between atoms: _29  and  _32
REMARK   16  A    between atoms: _32  and  _33
REMARK   17  A    between atoms: _36  and  _38
REMARK   18  A    between atoms: _38  and  _39
REMARK   19  A    between atoms: _38  and  _41
REMARK   20  A    between atoms: _41  and  _42
REMARK   21  A    between atoms: _45  and  _47
REMARK   22  A    between atoms: _47  and  _48
REMARK   23  A    between atoms: _47  and  _50
REMARK   24  A    between atoms: _50  and  _51
REMARK   25  A    between atoms: _54  and  _56
REMARK   26  A    between atoms: _56  and  _57
REMARK   27  A    between atoms: _59  and  _61
REMARK   28  A    between atoms: _61  and  _62
REMARK   29  A    between atoms: _65  and  _67
REMARK   30  A    between atoms: _67  and  _68
REMARK   31  A    between atoms: _67  and  _70
REMARK   32  A    between atoms: _70  and  _71
REMARK   33  A    between atoms: _74  and  _76
REMARK   34  A    between atoms: _76  and  _77
REMARK   35  A    between atoms: _76  and  _79
REMARK   36  A    between atoms: _79  and  _80
REMARK   37  A    between atoms: _83  and  _85
REMARK   38  A    between atoms: _85  and  _86
REMARK   39  A    between atoms: _85  and  _88
REMARK   40  A    between atoms: _88  and  _89
REMARK   41  A    between atoms: _92  and  _94
REMARK   42  A    between atoms: _94  and  _95
REMARK   43  A    between atoms: _94  and  _97
REMARK   44  A    between atoms: _100  and  _102
REMARK   45  A    between atoms: _102  and  _103
REMARK   46  A    between atoms: _102  and  _105
REMARK   47  A    between atoms: _105  and  _106
REMARK   48  A    between atoms: _106  and  _107
REMARK   49  A    between atoms: _107  and  _108
REMARK   50  A    between atoms: _108  and  _109
REMARK   51  A    between atoms: _113  and  _115
REMARK   52  A    between atoms: _115  and  _116
REMARK   53  A    between atoms: _115  and  _118
REMARK   54  A    between atoms: _118  and  _119
REMARK   55  A    between atoms: _119  and  _120
REMARK   56  A    between atoms: _122  and  _124
REMARK   57  A    between atoms: _124  and  _125
REMARK   58  A    between atoms: _124  and  _127
REMARK   59  A    between atoms: _127  and  _128
REMARK   60  A    between atoms: _131  and  _133
REMARK   61  A    between atoms: _133  and  _134
REMARK   62  A    between atoms: _136  and  _138
REMARK   63  A    between atoms: _138  and  _139
REMARK   64  A    between atoms: _141  and  _143
REMARK   65  A    between atoms: _143  and  _144
REMARK   66  A    between atoms: _143  and  _146
REMARK   67  A    between atoms: _146  and  _147
REMARK   68  A    between atoms: _150  and  _152
REMARK   69  A    between atoms: _152  and  _153
REMARK   70  A    between atoms: _155  and  _157
REMARK   71  A    between atoms: _157  and  _158
REMARK   72  A    between atoms: _160  and  _162
REMARK   73  A    between atoms: _162  and  _163
REMARK   74  A    between atoms: _162  and  _165
REMARK   75  A    between atoms: _165  and  _166
REMARK   76  A    between atoms: _172  and  _174
REMARK   77  A    between atoms: _174  and  _175
REMARK   78  A    between atoms: _174  and  _177
REMARK   79  A    between atoms: _177  and  _178
REMARK   80  A    between atoms: _181  and  _183
REMARK   81  A    between atoms: _183  and  _184
REMARK   82  A    between atoms: _183  and  _186
REMARK   83  A    between atoms: _189  and  _191
REMARK   84  A    between atoms: _191  and  _192
REMARK   85  A    between atoms: _191  and  _194
REMARK   86  A    between atoms: _194  and  _195
REMARK   87  A    between atoms: _199  and  _200
REMARK   88  A    between atoms: _205  and  _207
REMARK   89  A    between atoms: _207  and  _208
REMARK   90  A    between atoms: _207  and  _210
REMARK   91  A    between atoms: _210  and  _211
REMARK   92  A    between atoms: _215  and  _216
REMARK   93  A    between atoms: _221  and  _223
REMARK   94  A    between atoms: _223  and  _224
REMARK   95  A    between atoms: _223  and  _226
REMARK   96  A    between atoms: _229  and  _231
REMARK   97  A    between atoms: _231  and  _232
REMARK   98  A    between atoms: _231  and  _234
REMARK   99  A    between atoms: _234  and  _235
REMARK  100  A    between atoms: _240  and  _242
REMARK  101  A    between atoms: _242  and  _243
REMARK  102  A    between atoms: _242  and  _245
REMARK  103  A    between atoms: _245  and  _246
REMARK  104  A    between atoms: _249  and  _251
REMARK  105  A    between atoms: _251  and  _252
REMARK  106  A    between atoms: _251  and  _254
REMARK  107  A    between atoms: _254  and  _255
REMARK  108  A    between atoms: _258  and  _260
REMARK  109  A    between atoms: _260  and  _261
REMARK  110  A    between atoms: _263  and  _265
REMARK  111  A    between atoms: _265  and  _266
REMARK  112  A    between atoms: _265  and  _268
REMARK  113  A    between atoms: _268  and  _269
REMARK  114  A    between atoms: _269  and  _270
REMARK  115  A    between atoms: _270  and  _271
REMARK  116  A    between atoms: _280  and  _282
REMARK  117  A    between atoms: _282  and  _283
REMARK  118  A    between atoms: _282  and  _285
REMARK  119  A    between atoms: _285  and  _286
REMARK  120  A    between atoms: _291  and  _293
REMARK  121  A    between atoms: _293  and  _294
REMARK  122  A    between atoms: _293  and  _296
REMARK  123  A    between atoms: _296  and  _297
REMARK  124  A    between atoms: _297  and  _298
REMARK  125  A    between atoms: _298  and  _299
REMARK  126  A    between atoms: _308  and  _310
REMARK  127  A    between atoms: _310  and  _311
REMARK  128  A    between atoms: _310  and  _313
REMARK  129  A    between atoms: _313  and  _314
REMARK  130  A    between atoms: _317  and  _319
REMARK  131  A    between atoms: _319  and  _320
REMARK  132  A    between atoms: _319  and  _322
REMARK  133  A    between atoms: _322  and  _323
REMARK  134  A    between atoms: _326  and  _328
REMARK  135  A    between atoms: _328  and  _329
REMARK  136  A    between atoms: _328  and  _331
REMARK  137  A    between atoms: _331  and  _332
REMARK  138  A    between atoms: _335  and  _337
REMARK  139  A    between atoms: _337  and  _338
REMARK  140  A    between atoms: _337  and  _340
REMARK  141  A    between atoms: _340  and  _341
REMARK  142  A    between atoms: _344  and  _346
REMARK  143  A    between atoms: _346  and  _347
REMARK  144  A    between atoms: _349  and  _351
REMARK  145  A    between atoms: _351  and  _352
REMARK  146  A    between atoms: _355  and  _357
REMARK  147  A    between atoms: _357  and  _358
REMARK  148  A    between atoms: _357  and  _360
REMARK  149  A    between atoms: _360  and  _361
REMARK  150  A    between atoms: _364  and  _366
REMARK  151  A    between atoms: _366  and  _367
REMARK  152  A    between atoms: _366  and  _369
REMARK  153  A    between atoms: _369  and  _370
REMARK  154  A    between atoms: _373  and  _375
REMARK  155  A    between atoms: _375  and  _376
REMARK  156  A    between atoms: _375  and  _378
REMARK  157  A    between atoms: _378  and  _379
REMARK  158  A    between atoms: _382  and  _384
REMARK  159  A    between atoms: _384  and  _385
REMARK  160  A    between atoms: _384  and  _387
REMARK  161  A    between atoms: _390  and  _392
REMARK  162  A    between atoms: _392  and  _393
REMARK  163  A    between atoms: _392  and  _395
REMARK  164  A    between atoms: _395  and  _396
REMARK  165  A    between atoms: _396  and  _397
REMARK  166  A    between atoms: _397  and  _398
REMARK  167  A    between atoms: _398  and  _399
REMARK  168  A    between atoms: _403  and  _405
REMARK  169  A    between atoms: _405  and  _406
REMARK  170  A    between atoms: _405  and  _408
REMARK  171  A    between atoms: _408  and  _409
REMARK  172  A    between atoms: _409  and  _410
REMARK  173  A    between atoms: _412  and  _414
REMARK  174  A    between atoms: _414  and  _415
REMARK  175  A    between atoms: _414  and  _417
REMARK  176  A    between atoms: _417  and  _418
REMARK  177  A    between atoms: _421  and  _423
REMARK  178  A    between atoms: _423  and  _424
REMARK  179  A    between atoms: _426  and  _428
REMARK  180  A    between atoms: _428  and  _429
REMARK  181  A    between atoms: _431  and  _433
REMARK  182  A    between atoms: _433  and  _434
REMARK  183  A    between atoms: _433  and  _436
REMARK  184  A    between atoms: _436  and  _437
REMARK  185  A    between atoms: _440  and  _442
REMARK  186  A    between atoms: _442  and  _443
REMARK  187  A    between atoms: _445  and  _447
REMARK  188  A    between atoms: _447  and  _448
REMARK  189  A    between atoms: _450  and  _452
REMARK  190  A    between atoms: _452  and  _453
REMARK  191  A    between atoms: _452  and  _455
REMARK  192  A    between atoms: _455  and  _456
REMARK  193  A    between atoms: _462  and  _464
REMARK  194  A    between atoms: _464  and  _465
REMARK  195  A    between atoms: _464  and  _467
REMARK  196  A    between atoms: _467  and  _468
REMARK  197  A    between atoms: _471  and  _473
REMARK  198  A    between atoms: _473  and  _474
REMARK  199  A    between atoms: _473  and  _476
REMARK  200  A    between atoms: _476  and  _477
REMARK  201  A    between atoms: _480  and  _482
REMARK  202  A    between atoms: _482  and  _483
REMARK  203  A    between atoms: _482  and  _485
REMARK  204  A    between atoms: _485  and  _486
REMARK  205  A    between atoms: _490  and  _491
REMARK  206  A    between atoms: _496  and  _498
REMARK  207  A    between atoms: _498  and  _499
REMARK  208  A    between atoms: _498  and  _501
REMARK  209  A    between atoms: _504  and  _506
REMARK  210  A    between atoms: _506  and  _507
REMARK  211  A    between atoms: _506  and  _509
REMARK  212  A    between atoms: _509  and  _510
REMARK  213  A    between atoms: _515  and  _517
REMARK  214  A    between atoms: _517  and  _518
REMARK  215  A    between atoms: _517  and  _520
REMARK  216  A    between atoms: _520  and  _521
REMARK  217  A    between atoms: _524  and  _526
REMARK  218  A    between atoms: _526  and  _527
REMARK  219  A    between atoms: _526  and  _529
REMARK  220  A    between atoms: _529  and  _530
REMARK  221  A    between atoms: _533  and  _535
REMARK  222  A    between atoms: _535  and  _536
REMARK  223  A    between atoms: _538  and  _540
REMARK  224  A    between atoms: _540  and  _541
REMARK  225  A    between atoms: _540  and  _543
REMARK  226  A    between atoms: _543  and  _544
REMARK  227  A    between atoms: _544  and  _545
REMARK  228  A    between atoms: _545  and  _546
REMARK  229  A    between atoms: _555  and  _557
REMARK  230  A    between atoms: _557  and  _558
REMARK  231  A    between atoms: _557  and  _560
REMARK  232  A    between atoms: _560  and  _561
REMARK                            x       y       z     vdW  Elec       q    Type
REMARK                         _______ _______ _______ _____ _____    ______ ____
ROOT
ATOM      1  CA  ILE A   6      13.111  28.579  11.478  0.00  0.00    +0.149 C 
ENDROOT
BRANCH   1   2
ATOM      2  C   ILE A   6      13.395  30.054  11.459  0.00  0.00    +0.241 C 
ATOM      3  N   ILE A   7      12.572  30.835  12.127  0.00  0.00    -0.297 N 
ATOM      4  H   ILE A   7      11.691  30.423  12.497  0.00  0.00    +0.150 HD
ATOM      5  O   ILE A   6      14.393  30.489  10.850  0.00  0.00    -0.273 OA
BRANCH   3   6
ATOM      6  CA  ILE A   7      12.835  32.261  12.377  0.00  0.00    +0.149 C 
BRANCH   6   7
ATOM      7  C   ILE A   7      13.475  32.313  13.759  0.00  0.00    +0.241 C 
ATOM      8  O   ILE A   7      12.825  31.996  14.771  0.00  0.00    -0.273 OA
ATOM      9  N   GLY A   8      14.730  32.668  13.813  0.00  0.00    -0.295 N 
ATOM     10  H   GLY A   8      15.211  32.930  12.929  0.00  0.00    +0.150 HD
BRANCH   9  11
ATOM     11  CA  GLY A   8      15.473  32.712  15.035  0.00  0.00    +0.176 C 
BRANCH  11  12
ATOM     12  C   GLY A   8      15.523  34.108  15.645  0.00  0.00    +0.243 C 
ATOM     13  N   ARG A   9      16.235  34.180  16.774  0.00  0.00    -0.297 N 
ATOM     14  H   ARG A   9      16.797  33.362  17.084  0.00  0.00    +0.150 HD
ATOM     15  O   GLY A   8      14.940  35.070  15.145  0.00  0.00    -0.273 OA
BRANCH  13  16
ATOM     16  CA  ARG A   9      16.228  35.402  17.576  0.00  0.00    +0.149 C 
BRANCH  16  17
ATOM     17  C   ARG A   9      16.704  36.607  16.813  0.00  0.00    +0.241 C 
ATOM     18  O   ARG A   9      16.254  37.731  17.091  0.00  0.00    -0.273 OA
ATOM     19  N   ASN A  10      17.631  36.433  15.875  0.00  0.00    -0.298 N 
ATOM     20  H   ASN A  10      17.979  35.478  15.655  0.00  0.00    +0.150 HD
BRANCH  19  21
ATOM     21  CA  ASN A  10      18.158  37.591  15.156  0.00  0.00    +0.146 C 
BRANCH  21  22
ATOM     22  C   ASN A  10      17.078  38.373  14.431  0.00  0.00    +0.227 C 
ATOM     23  O   ASN A  10      17.264  39.563  14.232  0.00  0.00    -0.286 OA
ENDBRANCH  21  22
BRANCH  21  24
ATOM     24  CB  ASN A  10      19.272  37.157  14.181  0.00  0.00    +0.112 C 
BRANCH  24  25
ATOM     25  CG  ASN A  10      18.765  36.439  12.952  0.00  0.00    +0.222 C 
ATOM     26  OD1 ASN A  10      18.031  35.451  13.054  0.00  0.00    -0.275 OA
ATOM     27  ND2 ASN A  10      19.164  36.954  11.804  0.00  0.00    -0.329 N 
ATOM     28 HD21 ASN A  10      19.783  37.789  11.796  0.00  0.00    +0.145 HD
ATOM     29 HD22 ASN A  10      18.859  36.524  10.907  0.00  0.00    +0.145 HD
ENDBRANCH  24  25
ENDBRANCH  21  24
ENDBRANCH  19  21
ENDBRANCH  16  17
BRANCH  16  30
ATOM     30  CB  ARG A   9      17.056  35.214  18.845  0.00  0.00    +0.033 C 
BRANCH  30  31
ATOM     31  CG  ARG A   9      16.434  34.216  19.833  0.00  0.00    +0.045 C 
BRANCH  31  32
ATOM     32  CD  ARG A   9      17.150  34.176  21.166  0.00  0.00    +0.174 C 
BRANCH  32  33
ATOM     33  NE  ARG A   9      18.555  33.792  21.030  0.00  0.00    -0.265 N 
ATOM     34  HE  ARG A   9      18.735  32.769  20.977  0.00  0.00    +0.259 HD
ATOM     35  CZ  ARG A   9      19.631  34.563  20.965  0.00  0.00    +0.342 C 
ATOM     36  NH2 ARG A   9      19.550  35.893  21.134  0.00  0.00    -0.292 N 
ATOM     37 HH21 ARG A   9      18.629  36.338  21.320  0.00  0.00    +0.255 HD
ATOM     38 HH22 ARG A   9      20.408  36.477  21.079  0.00  0.00    +0.255 HD
ATOM     39  NH1 ARG A   9      20.813  34.032  20.774  0.00  0.00    -0.292 N 
ATOM     40 HH11 ARG A   9      21.655  34.641  20.724  0.00  0.00    +0.255 HD
ATOM     41 HH12 ARG A   9      20.910  33.001  20.673  0.00  0.00    +0.255 HD
ENDBRANCH  32  33
ENDBRANCH  31  32
ENDBRANCH  30  31
ENDBRANCH  16  30
ENDBRANCH  13  16
ENDBRANCH  11  12
ENDBRANCH   9  11
ENDBRANCH   6   7
BRANCH   6  42
ATOM     42  CB  ILE A   7      11.577  33.141  12.313  0.00  0.00    +0.027 C 
ATOM     43  CG2 ILE A   7      11.957  34.583  12.631  0.00  0.00    +0.002 C 
BRANCH  42  44
ATOM     44  CG1 ILE A   7      10.854  33.026  10.989  0.00  0.00    +0.002 C 
ATOM     45  CD1 ILE A   7      11.748  33.193   9.771  0.00  0.00    +0.000 C 
ENDBRANCH  42  44
ENDBRANCH   6  42
ENDBRANCH   3   6
ENDBRANCH   1   2
BRANCH   1  48
ATOM     46  C   ASN A   5      11.947  27.381   9.691  0.00  0.00    +0.241 C 
ATOM     47  O   ASN A   5      10.902  27.219  10.316  0.00  0.00    -0.273 OA
ATOM     48  N   ILE A   6      12.988  28.067  10.114  0.00  0.00    -0.297 N 
ATOM     49  H   ILE A   6      13.762  28.254   9.444  0.00  0.00    +0.150 HD
BRANCH  46  50
ATOM     50  CA  ASN A   5      12.099  26.793   8.284  0.00  0.00    +0.158 C 
BRANCH  50  53
ATOM     51  C   VAL A   4      12.447  24.438   8.864  0.00  0.00    +0.241 C 
ATOM     52  O   VAL A   4      13.584  24.694   9.248  0.00  0.00    -0.273 OA
ATOM     53  N   ASN A   5      11.675  25.396   8.339  0.00  0.00    -0.297 N 
ATOM     54  H   ASN A   5      10.743  25.138   7.958  0.00  0.00    +0.150 HD
BRANCH  51  55
ATOM     55  CA  VAL A   4      11.869  23.053   9.040  0.00  0.00    +0.149 C 
BRANCH  55  57
ATOM     56  C   PRO A   3      12.788  20.893   8.277  0.00  0.00    +0.241 C 
ATOM     57  N   VAL A   4      12.921  22.096   8.811  0.00  0.00    -0.297 N 
ATOM     58  H   VAL A   4      13.881  22.379   9.094  0.00  0.00    +0.150 HD
ATOM     59  O   PRO A   3      11.676  20.489   7.939  0.00  0.00    -0.273 OA
BRANCH  56  65
ATOM     60  C   THR A   2      15.750  21.451   7.412  0.00  0.00    +0.246 C 
ATOM     61  N   PRO A   3      15.282  20.633   8.339  0.00  0.00    -0.272 N 
ATOM     62  CD  PRO A   3      15.917  20.200   9.581  0.00  0.00    +0.094 C 
ATOM     63  CG  PRO A   3      14.923  19.286  10.145  0.00  0.00    +0.024 C 
ATOM     64  CB  PRO A   3      13.880  18.936   9.244  0.00  0.00    +0.031 C 
ATOM     65  CA  PRO A   3      14.000  19.986   8.130  0.00  0.00    +0.152 C 
ATOM     66  O   THR A   2      15.082  21.686   6.380  0.00  0.00    -0.273 OA
BRANCH  60  67
ATOM     67  CA  THR A   2      17.038  22.170   7.651  0.00  0.00    +0.176 C 
BRANCH  67  70
ATOM     68  C   PRO A   1      18.482  21.218   5.934  0.00  0.00    +0.239 C 
ATOM     69  O   PRO A   1      18.601  20.146   6.565  0.00  0.00    -0.274 OA
ATOM     70  N   THR A   2      17.832  22.241   6.422  0.00  0.00    -0.295 N 
ATOM     71  H   THR A   2      17.881  23.147   5.915  0.00  0.00    +0.150 HD
BRANCH  68  73
ATOM     72  N   PRO A   1      20.015  22.524   4.489  0.00  0.00    -0.210 NA
ATOM     73  CA  PRO A   1      19.101  21.360   4.556  0.00  0.00    +0.149 C 
ATOM     74  CB  PRO A   1      20.012  20.205   4.138  0.00  0.00    +0.028 C 
ATOM     75  CG  PRO A   1      21.378  20.620   4.662  0.00  0.00    +0.021 C 
ATOM     76  CD  PRO A   1      21.397  22.097   4.425  0.00  0.00    +0.089 C 
ENDBRANCH  68  73
ENDBRANCH  67  70
BRANCH  67  77
ATOM     77  CB  THR A   2      16.798  23.607   8.197  0.00  0.00    +0.137 C 
ATOM     78  CG2 THR A   2      16.081  24.532   7.246  0.00  0.00    +0.034 C 
BRANCH  77  79
ATOM     79  OG1 THR A   2      16.003  23.437   9.385  0.00  0.00    -0.382 OA
ATOM     80  HG1 THR A   2      15.151  22.991   9.149  0.00  0.00    +0.210 HD
ENDBRANCH  77  79
ENDBRANCH  67  77
ENDBRANCH  60  67
ENDBRANCH  56  65
ENDBRANCH  55  57
BRANCH  55  81
ATOM     81  CB  VAL A   4      11.208  22.874  10.418  0.00  0.00    +0.027 C 
ATOM     82  CG2 VAL A   4      12.212  23.058  11.550  0.00  0.00    +0.002 C 
ATOM     83  CG1 VAL A   4      10.021  23.796  10.695  0.00  0.00    +0.002 C 
ENDBRANCH  55  81
ENDBRANCH  51  55
ENDBRANCH  50  53
BRANCH  50  84
ATOM     84  CB  ASN A   5      11.269  27.590   7.315  0.00  0.00    +0.114 C 
BRANCH  84  85
ATOM     85  CG  ASN A   5      11.356  27.069   5.878  0.00  0.00    +0.222 C 
ATOM     86  OD1 ASN A   5      12.453  26.765   5.405  0.00  0.00    -0.275 OA
ATOM     87  ND2 ASN A   5      10.251  27.037   5.181  0.00  0.00    -0.329 N 
ATOM     88 HD21 ASN A   5       9.349  27.303   5.624  0.00  0.00    +0.145 HD
ATOM     89 HD22 ASN A   5      10.274  26.746   4.183  0.00  0.00    +0.145 HD
ENDBRANCH  84  85
ENDBRANCH  50  84
ENDBRANCH  46  50
ENDBRANCH   1  48
BRANCH   1  90
ATOM     90  CB  ILE A   6      14.330  27.841  12.172  0.00  0.00    +0.027 C 
ATOM     91  CG2 ILE A   6      14.691  28.539  13.474  0.00  0.00    +0.002 C 
BRANCH  90  92
ATOM     92  CG1 ILE A   6      14.047  26.363  12.300  0.00  0.00    +0.002 C 
ATOM     93  CD1 ILE A   6      15.261  25.526  12.565  0.00  0.00    +0.000 C 
ENDBRANCH  90  92
ENDBRANCH   1  90
TORSDOF 33
REMARK  Name = ../refined-set-2016/3djk/3djk_pocket.pdb
REMARK  232 active torsions:
REMARK  status: ('A' for Active; 'I' for Inactive)
REMARK    1  A    between atoms: _1  and  _3
REMARK    2  A    between atoms: _3  and  _4
REMARK    3  A    between atoms: _3  and  _6
REMARK    4  A    between atoms: _6  and  _7
REMARK    5  A    between atoms: _7  and  _8
REMARK    6  A    between atoms: _8  and  _9
REMARK    7  A    between atoms: _9  and  _11
REMARK    8  A    between atoms: _11  and  _15
REMARK    9  A    between atoms: _18  and  _20
REMARK   10  A    between atoms: _20  and  _21
REMARK   11  A    between atoms: _20  and  _23
REMARK   12  A    between atoms: _23  and  _24
REMARK   13  A    between atoms: _27  and  _29
REMARK   14  A    between atoms: _29  and  _30
REMARK   15  A    between atoms: _29  and  _32
REMARK   16  A    between atoms: _32  and  _33
REMARK   17  A    between atoms: _36  and  _38
REMARK   18  A    between atoms: _38  and  _39
REMARK   19  A    between atoms: _38  and  _41
REMARK   20  A    between atoms: _41  and  _42
REMARK   21  A    between atoms: _45  and  _47
REMARK   22  A    between atoms: _47  and  _48
REMARK   23  A    between atoms: _47  and  _50
REMARK   24  A    between atoms: _50  and  _51
REMARK   25  A    between atoms: _54  and  _56
REMARK   26  A    between atoms: _56  and  _57
REMARK   27  A    between atoms: _59  and  _61
REMARK   28  A    between atoms: _61  and  _62
REMARK   29  A    between atoms: _65  and  _67
REMARK   30  A    between atoms: _67  and  _68
REMARK   31  A    between atoms: _67  and  _70
REMARK   32  A    between atoms: _70  and  _71
REMARK   33  A    between atoms: _74  and  _76
REMARK   34  A    between atoms: _76  and  _77
REMARK   35  A    between atoms: _76  and  _79
REMARK   36  A    between atoms: _79  and  _80
REMARK   37  A    between atoms: _83  and  _85
REMARK   38  A    between atoms: _85  and  _86
REMARK   39  A    between atoms: _85  and  _88
REMARK   40  A    between atoms: _88  and  _89
REMARK   41  A    between atoms: _92  and  _94
REMARK   42  A    between atoms: _94  and  _95
REMARK   43  A    between atoms: _94  and  _97
REMARK   44  A    between atoms: _100  and  _102
REMARK   45  A    between atoms: _102  and  _103
REMARK   46  A    between atoms: _102  and  _105
REMARK   47  A    between atoms: _105  and  _106
REMARK   48  A    between atoms: _106  and  _107
REMARK   49  A    between atoms: _107  and  _108
REMARK   50  A    between atoms: _108  and  _109
REMARK   51  A    between atoms: _113  and  _115
REMARK   52  A    between atoms: _115  and  _116
REMARK   53  A    between atoms: _115  and  _118
REMARK   54  A    between atoms: _118  and  _119
REMARK   55  A    between atoms: _119  and  _120
REMARK   56  A    between atoms: _122  and  _124
REMARK   57  A    between atoms: _124  and  _125
REMARK   58  A    between atoms: _124  and  _127
REMARK   59  A    between atoms: _127  and  _128
REMARK   60  A    between atoms: _131  and  _133
REMARK   61  A    between atoms: _133  and  _134
REMARK   62  A    between atoms: _136  and  _138
REMARK   63  A    between atoms: _138  and  _139
REMARK   64  A    between atoms: _141  and  _143
REMARK   65  A    between atoms: _143  and  _144
REMARK   66  A    between atoms: _143  and  _146
REMARK   67  A    between atoms: _146  and  _147
REMARK   68  A    between atoms: _150  and  _152
REMARK   69  A    between atoms: _152  and  _153
REMARK   70  A    between atoms: _155  and  _157
REMARK   71  A    between atoms: _157  and  _158
REMARK   72  A    between atoms: _160  and  _162
REMARK   73  A    between atoms: _162  and  _163
REMARK   74  A    between atoms: _162  and  _165
REMARK   75  A    between atoms: _165  and  _166
REMARK   76  A    between atoms: _172  and  _174
REMARK   77  A    between atoms: _174  and  _175
REMARK   78  A    between atoms: _174  and  _177
REMARK   79  A    between atoms: _177  and  _178
REMARK   80  A    between atoms: _181  and  _183
REMARK   81  A    between atoms: _183  and  _184
REMARK   82  A    between atoms: _183  and  _186
REMARK   83  A    between atoms: _189  and  _191
REMARK   84  A    between atoms: _191  and  _192
REMARK   85  A    between atoms: _191  and  _194
REMARK   86  A    between atoms: _194  and  _195
REMARK   87  A    between atoms: _199  and  _200
REMARK   88  A    between atoms: _205  and  _207
REMARK   89  A    between atoms: _207  and  _208
REMARK   90  A    between atoms: _207  and  _210
REMARK   91  A    between atoms: _210  and  _211
REMARK   92  A    between atoms: _215  and  _216
REMARK   93  A    between atoms: _221  and  _223
REMARK   94  A    between atoms: _223  and  _224
REMARK   95  A    between atoms: _223  and  _226
REMARK   96  A    between atoms: _229  and  _231
REMARK   97  A    between atoms: _231  and  _232
REMARK   98  A    between atoms: _231  and  _234
REMARK   99  A    between atoms: _234  and  _235
REMARK  100  A    between atoms: _240  and  _242
REMARK  101  A    between atoms: _242  and  _243
REMARK  102  A    between atoms: _242  and  _245
REMARK  103  A    between atoms: _245  and  _246
REMARK  104  A    between atoms: _249  and  _251
REMARK  105  A    between atoms: _251  and  _252
REMARK  106  A    between atoms: _251  and  _254
REMARK  107  A    between atoms: _254  and  _255
REMARK  108  A    between atoms: _258  and  _260
REMARK  109  A    between atoms: _260  and  _261
REMARK  110  A    between atoms: _263  and  _265
REMARK  111  A    between atoms: _265  and  _266
REMARK  112  A    between atoms: _265  and  _268
REMARK  113  A    between atoms: _268  and  _269
REMARK  114  A    between atoms: _269  and  _270
REMARK  115  A    between atoms: _270  and  _271
REMARK  116  A    between atoms: _280  and  _282
REMARK  117  A    between atoms: _282  and  _283
REMARK  118  A    between atoms: _282  and  _285
REMARK  119  A    between atoms: _285  and  _286
REMARK  120  A    between atoms: _291  and  _293
REMARK  121  A    between atoms: _293  and  _294
REMARK  122  A    between atoms: _293  and  _296
REMARK  123  A    between atoms: _296  and  _297
REMARK  124  A    between atoms: _297  and  _298
REMARK  125  A    between atoms: _298  and  _299
REMARK  126  A    between atoms: _308  and  _310
REMARK  127  A    between atoms: _310  and  _311
REMARK  128  A    between atoms: _310  and  _313
REMARK  129  A    between atoms: _313  and  _314
REMARK  130  A    between atoms: _317  and  _319
REMARK  131  A    between atoms: _319  and  _320
REMARK  132  A    between atoms: _319  and  _322
REMARK  133  A    between atoms: _322  and  _323
REMARK  134  A    between atoms: _326  and  _328
REMARK  135  A    between atoms: _328  and  _329
REMARK  136  A    between atoms: _328  and  _331
REMARK  137  A    between atoms: _331  and  _332
REMARK  138  A    between atoms: _335  and  _337
REMARK  139  A    between atoms: _337  and  _338
REMARK  140  A    between atoms: _337  and  _340
REMARK  141  A    between atoms: _340  and  _341
REMARK  142  A    between atoms: _344  and  _346
REMARK  143  A    between atoms: _346  and  _347
REMARK  144  A    between atoms: _349  and  _351
REMARK  145  A    between atoms: _351  and  _352
REMARK  146  A    between atoms: _355  and  _357
REMARK  147  A    between atoms: _357  and  _358
REMARK  148  A    between atoms: _357  and  _360
REMARK  149  A    between atoms: _360  and  _361
REMARK  150  A    between atoms: _364  and  _366
REMARK  151  A    between atoms: _366  and  _367
REMARK  152  A    between atoms: _366  and  _369
REMARK  153  A    between atoms: _369  and  _370
REMARK  154  A    between atoms: _373  and  _375
REMARK  155  A    between atoms: _375  and  _376
REMARK  156  A    between atoms: _375  and  _378
REMARK  157  A    between atoms: _378  and  _379
REMARK  158  A    between atoms: _382  and  _384
REMARK  159  A    between atoms: _384  and  _385
REMARK  160  A    between atoms: _384  and  _387
REMARK  161  A    between atoms: _390  and  _392
REMARK  162  A    between atoms: _392  and  _393
REMARK  163  A    between atoms: _392  and  _395
REMARK  164  A    between atoms: _395  and  _396
REMARK  165  A    between atoms: _396  and  _397
REMARK  166  A    between atoms: _397  and  _398
REMARK  167  A    between atoms: _398  and  _399
REMARK  168  A    between atoms: _403  and  _405
REMARK  169  A    between atoms: _405  and  _406
REMARK  170  A    between atoms: _405  and  _408
REMARK  171  A    between atoms: _408  and  _409
REMARK  172  A    between atoms: _409  and  _410
REMARK  173  A    between atoms: _412  and  _414
REMARK  174  A    between atoms: _414  and  _415
REMARK  175  A    between atoms: _414  and  _417
REMARK  176  A    between atoms: _417  and  _418
REMARK  177  A    between atoms: _421  and  _423
REMARK  178  A    between atoms: _423  and  _424
REMARK  179  A    between atoms: _426  and  _428
REMARK  180  A    between atoms: _428  and  _429
REMARK  181  A    between atoms: _431  and  _433
REMARK  182  A    between atoms: _433  and  _434
REMARK  183  A    between atoms: _433  and  _436
REMARK  184  A    between atoms: _436  and  _437
REMARK  185  A    between atoms: _440  and  _442
REMARK  186  A    between atoms: _442  and  _443
REMARK  187  A    between atoms: _445  and  _447
REMARK  188  A    between atoms: _447  and  _448
REMARK  189  A    between atoms: _450  and  _452
REMARK  190  A    between atoms: _452  and  _453
REMARK  191  A    between atoms: _452  and  _455
REMARK  192  A    between atoms: _455  and  _456
REMARK  193  A    between atoms: _462  and  _464
REMARK  194  A    between atoms: _464  and  _465
REMARK  195  A    between atoms: _464  and  _467
REMARK  196  A    between atoms: _467  and  _468
REMARK  197  A    between atoms: _471  and  _473
REMARK  198  A    between atoms: _473  and  _474
REMARK  199  A    between atoms: _473  and  _476
REMARK  200  A    between atoms: _476  and  _477
REMARK  201  A    between atoms: _480  and  _482
REMARK  202  A    between atoms: _482  and  _483
REMARK  203  A    between atoms: _482  and  _485
REMARK  204  A    between atoms: _485  and  _486
REMARK  205  A    between atoms: _490  and  _491
REMARK  206  A    between atoms: _496  and  _498
REMARK  207  A    between atoms: _498  and  _499
REMARK  208  A    between atoms: _498  and  _501
REMARK  209  A    between atoms: _504  and  _506
REMARK  210  A    between atoms: _506  and  _507
REMARK  211  A    between atoms: _506  and  _509
REMARK  212  A    between atoms: _509  and  _510
REMARK  213  A    between atoms: _515  and  _517
REMARK  214  A    between atoms: _517  and  _518
REMARK  215  A    between atoms: _517  and  _520
REMARK  216  A    between atoms: _520  and  _521
REMARK  217  A    between atoms: _524  and  _526
REMARK  218  A    between atoms: _526  and  _527
REMARK  219  A    between atoms: _526  and  _529
REMARK  220  A    between atoms: _529  and  _530
REMARK  221  A    between atoms: _533  and  _535
REMARK  222  A    between atoms: _535  and  _536
REMARK  223  A    between atoms: _538  and  _540
REMARK  224  A    between atoms: _540  and  _541
REMARK  225  A    between atoms: _540  and  _543
REMARK  226  A    between atoms: _543  and  _544
REMARK  227  A    between atoms: _544  and  _545
REMARK  228  A    between atoms: _545  and  _546
REMARK  229  A    between atoms: _555  and  _557
REMARK  230  A    between atoms: _557  and  _558
REMARK  231  A    between atoms: _557  and  _560
REMARK  232  A    between atoms: _560  and  _561
REMARK                            x       y       z     vdW  Elec       q    Type
REMARK                         _______ _______ _______ _____ _____    ______ ____
ROOT
ATOM      1  NE  ARG A   1      22.904  30.722  22.599  0.00  0.00    -0.265 N 
ATOM      2  CZ  ARG A   1      24.150  30.249  22.506  0.00  0.00    +0.342 C 
ATOM      3  NH2 ARG A   1      24.914  30.031  23.562  0.00  0.00    -0.292 N 
ATOM      4 HH21 ARG A   1      24.551  30.229  24.516  0.00  0.00    +0.255 HD
ATOM      5 HH22 ARG A   1      25.878  29.662  23.439  0.00  0.00    +0.255 HD
ATOM      6  NH1 ARG A   1      24.616  30.008  21.291  0.00  0.00    -0.292 N 
ATOM      7 HH11 ARG A   1      25.581  29.639  21.168  0.00  0.00    +0.255 HD
ATOM      8 HH12 ARG A   1      24.018  30.188  20.460  0.00  0.00    +0.255 HD
ATOM      9  HE  ARG A   1      22.381  30.873  21.713  0.00  0.00    +0.259 HD
ENDROOT
BRANCH   1  10
ATOM     10  CD  ARG A   1      22.217  31.044  23.853  0.00  0.00    +0.174 C 
BRANCH  10  11
ATOM     11  CG  ARG A   1      21.086  32.020  23.603  0.00  0.00    +0.045 C 
BRANCH  11  12
ATOM     12  CB  ARG A   1      20.374  32.390  24.916  0.00  0.00    +0.029 C 
BRANCH  12  13
ATOM     13  CA  ARG A   1      19.363  33.500  24.714  0.00  0.00    +0.133 C 
BRANCH  13  14
ATOM     14  N   ARG A   1      20.023  34.774  24.566  0.00  0.00    -0.239 NA
ATOM     15  H   ARG A   1      21.062  34.805  24.581  0.00  0.00    +0.142 HD
ENDBRANCH  13  14
BRANCH  13  16
ATOM     16  C   ARG A   1      18.441  33.521  25.925  0.00  0.00    +0.224 C 
ATOM     17  O   ARG A   1      18.873  33.970  26.990  0.00  0.00    -0.287 OA
ENDBRANCH  13  16
ENDBRANCH  12  13
ENDBRANCH  11  12
ENDBRANCH  10  11
ENDBRANCH   1  10
TORSDOF 6
REMARK  Name = ../refined-set-2016/3djk/3djk_pocket.pdb
REMARK  232 active torsions:
REMARK  status: ('A' for Active; 'I' for Inactive)
REMARK    1  A    between atoms: _1  and  _3
REMARK    2  A    between atoms: _3  and  _4
REMARK    3  A    between atoms: _3  and  _6
REMARK    4  A    between atoms: _6  and  _7
REMARK    5  A    between atoms: _7  and  _8
REMARK    6  A    between atoms: _8  and  _9
REMARK    7  A    between atoms: _9  and  _11
REMARK    8  A    between atoms: _11  and  _15
REMARK    9  A    between atoms: _18  and  _20
REMARK   10  A    between atoms: _20  and  _21
REMARK   11  A    between atoms: _20  and  _23
REMARK   12  A    between atoms: _23  and  _24
REMARK   13  A    between atoms: _27  and  _29
REMARK   14  A    between atoms: _29  and  _30
REMARK   15  A    between atoms: _29  and  _32
REMARK   16  A    between atoms: _32  and  _33
REMARK   17  A    between atoms: _36  and  _38
REMARK   18  A    between atoms: _38  and  _39
REMARK   19  A    between atoms: _38  and  _41
REMARK   20  A    between atoms: _41  and  _42
REMARK   21  A    between atoms: _45  and  _47
REMARK   22  A    between atoms: _47  and  _48
REMARK   23  A    between atoms: _47  and  _50
REMARK   24  A    between atoms: _50  and  _51
REMARK   25  A    between atoms: _54  and  _56
REMARK   26  A    between atoms: _56  and  _57
REMARK   27  A    between atoms: _59  and  _61
REMARK   28  A    between atoms: _61  and  _62
REMARK   29  A    between atoms: _65  and  _67
REMARK   30  A    between atoms: _67  and  _68
REMARK   31  A    between atoms: _67  and  _70
REMARK   32  A    between atoms: _70  and  _71
REMARK   33  A    between atoms: _74  and  _76
REMARK   34  A    between atoms: _76  and  _77
REMARK   35  A    between atoms: _76  and  _79
REMARK   36  A    between atoms: _79  and  _80
REMARK   37  A    between atoms: _83  and  _85
REMARK   38  A    between atoms: _85  and  _86
REMARK   39  A    between atoms: _85  and  _88
REMARK   40  A    between atoms: _88  and  _89
REMARK   41  A    between atoms: _92  and  _94
REMARK   42  A    between atoms: _94  and  _95
REMARK   43  A    between atoms: _94  and  _97
REMARK   44  A    between atoms: _100  and  _102
REMARK   45  A    between atoms: _102  and  _103
REMARK   46  A    between atoms: _102  and  _105
REMARK   47  A    between atoms: _105  and  _106
REMARK   48  A    between atoms: _106  and  _107
REMARK   49  A    between atoms: _107  and  _108
REMARK   50  A    between atoms: _108  and  _109
REMARK   51  A    between atoms: _113  and  _115
REMARK   52  A    between atoms: _115  and  _116
REMARK   53  A    between atoms: _115  and  _118
REMARK   54  A    between atoms: _118  and  _119
REMARK   55  A    between atoms: _119  and  _120
REMARK   56  A    between atoms: _122  and  _124
REMARK   57  A    between atoms: _124  and  _125
REMARK   58  A    between atoms: _124  and  _127
REMARK   59  A    between atoms: _127  and  _128
REMARK   60  A    between atoms: _131  and  _133
REMARK   61  A    between atoms: _133  and  _134
REMARK   62  A    between atoms: _136  and  _138
REMARK   63  A    between atoms: _138  and  _139
REMARK   64  A    between atoms: _141  and  _143
REMARK   65  A    between atoms: _143  and  _144
REMARK   66  A    between atoms: _143  and  _146
REMARK   67  A    between atoms: _146  and  _147
REMARK   68  A    between atoms: _150  and  _152
REMARK   69  A    between atoms: _152  and  _153
REMARK   70  A    between atoms: _155  and  _157
REMARK   71  A    between atoms: _157  and  _158
REMARK   72  A    between atoms: _160  and  _162
REMARK   73  A    between atoms: _162  and  _163
REMARK   74  A    between atoms: _162  and  _165
REMARK   75  A    between atoms: _165  and  _166
REMARK   76  A    between atoms: _172  and  _174
REMARK   77  A    between atoms: _174  and  _175
REMARK   78  A    between atoms: _174  and  _177
REMARK   79  A    between atoms: _177  and  _178
REMARK   80  A    between atoms: _181  and  _183
REMARK   81  A    between atoms: _183  and  _184
REMARK   82  A    between atoms: _183  and  _186
REMARK   83  A    between atoms: _189  and  _191
REMARK   84  A    between atoms: _191  and  _192
REMARK   85  A    between atoms: _191  and  _194
REMARK   86  A    between atoms: _194  and  _195
REMARK   87  A    between atoms: _199  and  _200
REMARK   88  A    between atoms: _205  and  _207
REMARK   89  A    between atoms: _207  and  _208
REMARK   90  A    between atoms: _207  and  _210
REMARK   91  A    between atoms: _210  and  _211
REMARK   92  A    between atoms: _215  and  _216
REMARK   93  A    between atoms: _221  and  _223
REMARK   94  A    between atoms: _223  and  _224
REMARK   95  A    between atoms: _223  and  _226
REMARK   96  A    between atoms: _229  and  _231
REMARK   97  A    between atoms: _231  and  _232
REMARK   98  A    between atoms: _231  and  _234
REMARK   99  A    between atoms: _234  and  _235
REMARK  100  A    between atoms: _240  and  _242
REMARK  101  A    between atoms: _242  and  _243
REMARK  102  A    between atoms: _242  and  _245
REMARK  103  A    between atoms: _245  and  _246
REMARK  104  A    between atoms: _249  and  _251
REMARK  105  A    between atoms: _251  and  _252
REMARK  106  A    between atoms: _251  and  _254
REMARK  107  A    between atoms: _254  and  _255
REMARK  108  A    between atoms: _258  and  _260
REMARK  109  A    between atoms: _260  and  _261
REMARK  110  A    between atoms: _263  and  _265
REMARK  111  A    between atoms: _265  and  _266
REMARK  112  A    between atoms: _265  and  _268
REMARK  113  A    between atoms: _268  and  _269
REMARK  114  A    between atoms: _269  and  _270
REMARK  115  A    between atoms: _270  and  _271
REMARK  116  A    between atoms: _280  and  _282
REMARK  117  A    between atoms: _282  and  _283
REMARK  118  A    between atoms: _282  and  _285
REMARK  119  A    between atoms: _285  and  _286
REMARK  120  A    between atoms: _291  and  _293
REMARK  121  A    between atoms: _293  and  _294
REMARK  122  A    between atoms: _293  and  _296
REMARK  123  A    between atoms: _296  and  _297
REMARK  124  A    between atoms: _297  and  _298
REMARK  125  A    between atoms: _298  and  _299
REMARK  126  A    between atoms: _308  and  _310
REMARK  127  A    between atoms: _310  and  _311
REMARK  128  A    between atoms: _310  and  _313
REMARK  129  A    between atoms: _313  and  _314
REMARK  130  A    between atoms: _317  and  _319
REMARK  131  A    between atoms: _319  and  _320
REMARK  132  A    between atoms: _319  and  _322
REMARK  133  A    between atoms: _322  and  _323
REMARK  134  A    between atoms: _326  and  _328
REMARK  135  A    between atoms: _328  and  _329
REMARK  136  A    between atoms: _328  and  _331
REMARK  137  A    between atoms: _331  and  _332
REMARK  138  A    between atoms: _335  and  _337
REMARK  139  A    between atoms: _337  and  _338
REMARK  140  A    between atoms: _337  and  _340
REMARK  141  A    between atoms: _340  and  _341
REMARK  142  A    between atoms: _344  and  _346
REMARK  143  A    between atoms: _346  and  _347
REMARK  144  A    between atoms: _349  and  _351
REMARK  145  A    between atoms: _351  and  _352
REMARK  146  A    between atoms: _355  and  _357
REMARK  147  A    between atoms: _357  and  _358
REMARK  148  A    between atoms: _357  and  _360
REMARK  149  A    between atoms: _360  and  _361
REMARK  150  A    between atoms: _364  and  _366
REMARK  151  A    between atoms: _366  and  _367
REMARK  152  A    between atoms: _366  and  _369
REMARK  153  A    between atoms: _369  and  _370
REMARK  154  A    between atoms: _373  and  _375
REMARK  155  A    between atoms: _375  and  _376
REMARK  156  A    between atoms: _375  and  _378
REMARK  157  A    between atoms: _378  and  _379
REMARK  158  A    between atoms: _382  and  _384
REMARK  159  A    between atoms: _384  and  _385
REMARK  160  A    between atoms: _384  and  _387
REMARK  161  A    between atoms: _390  and  _392
REMARK  162  A    between atoms: _392  and  _393
REMARK  163  A    between atoms: _392  and  _395
REMARK  164  A    between atoms: _395  and  _396
REMARK  165  A    between atoms: _396  and  _397
REMARK  166  A    between atoms: _397  and  _398
REMARK  167  A    between atoms: _398  and  _399
REMARK  168  A    between atoms: _403  and  _405
REMARK  169  A    between atoms: _405  and  _406
REMARK  170  A    between atoms: _405  and  _408
REMARK  171  A    between atoms: _408  and  _409
REMARK  172  A    between atoms: _409  and  _410
REMARK  173  A    between atoms: _412  and  _414
REMARK  174  A    between atoms: _414  and  _415
REMARK  175  A    between atoms: _414  and  _417
REMARK  176  A    between atoms: _417  and  _418
REMARK  177  A    between atoms: _421  and  _423
REMARK  178  A    between atoms: _423  and  _424
REMARK  179  A    between atoms: _426  and  _428
REMARK  180  A    between atoms: _428  and  _429
REMARK  181  A    between atoms: _431  and  _433
REMARK  182  A    between atoms: _433  and  _434
REMARK  183  A    between atoms: _433  and  _436
REMARK  184  A    between atoms: _436  and  _437
REMARK  185  A    between atoms: _440  and  _442
REMARK  186  A    between atoms: _442  and  _443
REMARK  187  A    between atoms: _445  and  _447
REMARK  188  A    between atoms: _447  and  _448
REMARK  189  A    between atoms: _450  and  _452
REMARK  190  A    between atoms: _452  and  _453
REMARK  191  A    between atoms: _452  and  _455
REMARK  192  A    between atoms: _455  and  _456
REMARK  193  A    between atoms: _462  and  _464
REMARK  194  A    between atoms: _464  and  _465
REMARK  195  A    between atoms: _464  and  _467
REMARK  196  A    between atoms: _467  and  _468
REMARK  197  A    between atoms: _471  and  _473
REMARK  198  A    between atoms: _473  and  _474
REMARK  199  A    between atoms: _473  and  _476
REMARK  200  A    between atoms: _476  and  _477
REMARK  201  A    between atoms: _480  and  _482
REMARK  202  A    between atoms: _482  and  _483
REMARK  203  A    between atoms: _482  and  _485
REMARK  204  A    between atoms: _485  and  _486
REMARK  205  A    between atoms: _490  and  _491
REMARK  206  A    between atoms: _496  and  _498
REMARK  207  A    between atoms: _498  and  _499
REMARK  208  A    between atoms: _498  and  _501
REMARK  209  A    between atoms: _504  and  _506
REMARK  210  A    between atoms: _506  and  _507
REMARK  211  A    between atoms: _506  and  _509
REMARK  212  A    between atoms: _509  and  _510
REMARK  213  A    between atoms: _515  and  _517
REMARK  214  A    between atoms: _517  and  _518
REMARK  215  A    between atoms: _517  and  _520
REMARK  216  A    between atoms: _520  and  _521
REMARK  217  A    between atoms: _524  and  _526
REMARK  218  A    between atoms: _526  and  _527
REMARK  219  A    between atoms: _526  and  _529
REMARK  220  A    between atoms: _529  and  _530
REMARK  221  A    between atoms: _533  and  _535
REMARK  222  A    between atoms: _535  and  _536
REMARK  223  A    between atoms: _538  and  _540
REMARK  224  A    between atoms: _540  and  _541
REMARK  225  A    between atoms: _540  and  _543
REMARK  226  A    between atoms: _543  and  _544
REMARK  227  A    between atoms: _544  and  _545
REMARK  228  A    between atoms: _545  and  _546
REMARK  229  A    between atoms: _555  and  _557
REMARK  230  A    between atoms: _557  and  _558
REMARK  231  A    between atoms: _557  and  _560
REMARK  232  A    between atoms: _560  and  _561
REMARK                            x       y       z     vdW  Elec       q    Type
REMARK                         _______ _______ _______ _____ _____    ______ ____
ROOT
ATOM      1  C   GLY A   5      10.888  24.140  18.673  0.00  0.00    +0.243 C 
ATOM      2  N   ALA A   6      10.832  23.784  19.955  0.00  0.00    -0.297 N 
ATOM      3  H   ALA A   6      10.707  24.532  20.666  0.00  0.00    +0.150 HD
ATOM      4  O   GLY A   5      11.060  23.294  17.771  0.00  0.00    -0.273 OA
ENDROOT
BRANCH   2   5
ATOM      5  CA  ALA A   6      10.937  22.396  20.422  0.00  0.00    +0.149 C 
ATOM      6  CB  ALA A   6      11.916  22.327  21.568  0.00  0.00    +0.031 C 
BRANCH   5   7
ATOM      7  C   ALA A   6       9.562  21.952  20.880  0.00  0.00    +0.241 C 
ATOM      8  O   ALA A   6       8.953  22.544  21.753  0.00  0.00    -0.273 OA
ATOM      9  N   ASP A   7       9.056  20.860  20.276  0.00  0.00    -0.297 N 
ATOM     10  H   ASP A   7       9.560  20.407  19.487  0.00  0.00    +0.150 HD
BRANCH   9  11
ATOM     11  CA  ASP A   7       7.805  20.335  20.746  0.00  0.00    +0.160 C 
BRANCH  11  12
ATOM     12  C   ASP A   7       7.955  19.782  22.163  0.00  0.00    +0.241 C 
ATOM     13  O   ASP A   7       6.989  19.836  22.934  0.00  0.00    -0.273 OA
ATOM     14  N   ASP A   8       9.103  19.192  22.439  0.00  0.00    -0.297 N 
ATOM     15  H   ASP A   8       9.860  19.281  21.732  0.00  0.00    +0.150 HD
BRANCH  14  16
ATOM     16  CA  ASP A   8       9.414  18.418  23.656  0.00  0.00    +0.160 C 
BRANCH  16  17
ATOM     17  C   ASP A   8      10.582  19.023  24.376  0.00  0.00    +0.241 C 
ATOM     18  N   THR A   9      10.652  18.715  25.664  0.00  0.00    -0.295 N 
ATOM     19  H   THR A   9       9.873  18.147  26.055  0.00  0.00    +0.150 HD
ATOM     20  O   ASP A   8      11.432  19.711  23.831  0.00  0.00    -0.273 OA
BRANCH  18  21
ATOM     21  CA  THR A   9      11.712  19.095  26.579  0.00  0.00    +0.176 C 
BRANCH  21  22
ATOM     22  C   THR A   9      12.788  18.035  26.573  0.00  0.00    +0.243 C 
ATOM     23  O   THR A   9      12.464  16.855  26.755  0.00  0.00    -0.273 OA
ATOM     24  N   VAL A  10      14.039  18.435  26.375  0.00  0.00    -0.298 N 
ATOM     25  H   VAL A  10      14.208  19.457  26.282  0.00  0.00    +0.150 HD
BRANCH  24  26
ATOM     26  CA  VAL A  10      15.199  17.546  26.278  0.00  0.00    +0.137 C 
BRANCH  26  27
ATOM     27  CB  VAL A  10      15.727  17.442  24.806  0.00  0.00    +0.026 C 
ATOM     28  CG2 VAL A  10      16.698  16.264  24.789  0.00  0.00    +0.002 C 
ATOM     29  CG1 VAL A  10      14.599  17.265  23.793  0.00  0.00    +0.002 C 
ENDBRANCH  26  27
BRANCH  26  30
ATOM     30  C   VAL A  10      16.274  18.028  27.194  0.00  0.00    +0.227 C 
ATOM     31  O   VAL A  10      16.690  19.182  27.091  0.00  0.00    -0.286 OA
ENDBRANCH  26  30
ENDBRANCH  24  26
ENDBRANCH  21  22
BRANCH  21  32
ATOM     32  CB  THR A   9      11.105  19.287  27.960  0.00  0.00    +0.137 C 
ATOM     33  CG2 THR A   9      12.135  19.531  29.046  0.00  0.00    +0.034 C 
BRANCH  32  34
ATOM     34  OG1 THR A   9      10.177  20.406  27.903  0.00  0.00    -0.382 OA
ATOM     35  HG1 THR A   9       9.465  20.209  27.244  0.00  0.00    +0.210 HD
ENDBRANCH  32  34
ENDBRANCH  21  32
ENDBRANCH  18  21
ENDBRANCH  16  17
BRANCH  16  36
ATOM     36  CB  ASP A   8       9.763  16.980  23.240  0.00  0.00    +0.143 C 
BRANCH  36  37
ATOM     37  CG  ASP A   8       8.744  16.267  22.446  0.00  0.00    +0.367 C 
ATOM     38  OD2 ASP A   8       7.534  16.375  22.743  0.00  0.00    -0.246 OA
ATOM     39  OD1 ASP A   8       9.173  15.495  21.556  0.00  0.00    -0.246 OA
ENDBRANCH  36  37
ENDBRANCH  16  36
ENDBRANCH  14  16
ENDBRANCH  11  12
BRANCH  11  40
ATOM     40  CB  ASP A   7       7.321  19.160  19.861  0.00  0.00    +0.143 C 
BRANCH  40  41
ATOM     41  CG  ASP A   7       7.271  19.461  18.373  0.00  0.00    +0.367 C 
ATOM     42  OD2 ASP A   7       6.902  20.561  17.943  0.00  0.00    -0.246 OA
ATOM     43  OD1 ASP A   7       7.508  18.481  17.595  0.00  0.00    -0.246 OA
ENDBRANCH  40  41
ENDBRANCH  11  40
ENDBRANCH   9  11
ENDBRANCH   5   7
ENDBRANCH   2   5
BRANCH   1  44
ATOM     44  CA  GLY A   5      10.753  25.605  18.324  0.00  0.00    +0.176 C 
BRANCH  44  47
ATOM     45  C   THR A   4       9.377  26.689  20.050  0.00  0.00    +0.243 C 
ATOM     46  O   THR A   4       8.319  26.205  19.615  0.00  0.00    -0.273 OA
ATOM     47  N   GLY A   5      10.526  26.481  19.464  0.00  0.00    -0.295 N 
ATOM     48  H   GLY A   5      11.351  26.986  19.846  0.00  0.00    +0.150 HD
BRANCH  45  49
ATOM     49  CA  THR A   4       9.330  27.553  21.284  0.00  0.00    +0.176 C 
BRANCH  49  52
ATOM     50  C   ASP A   3      11.156  26.663  22.558  0.00  0.00    +0.241 C 
ATOM     51  O   ASP A   3      10.641  25.556  22.624  0.00  0.00    -0.273 OA
ATOM     52  N   THR A   4      10.624  27.696  21.919  0.00  0.00    -0.295 N 
ATOM     53  H   THR A   4      11.132  28.602  21.874  0.00  0.00    +0.150 HD
BRANCH  50  54
ATOM     54  CA  ASP A   3      12.527  26.982  23.168  0.00  0.00    +0.160 C 
BRANCH  54  56
ATOM     55  C   LEU A   2      13.042  28.293  25.128  0.00  0.00    +0.241 C 
ATOM     56  N   ASP A   3      12.472  27.208  24.603  0.00  0.00    -0.297 N 
ATOM     57  H   ASP A   3      11.989  26.524  25.219  0.00  0.00    +0.150 HD
ATOM     58  O   LEU A   2      13.456  29.232  24.488  0.00  0.00    -0.273 OA
BRANCH  55  59
ATOM     59  CA  LEU A   2      13.142  28.315  26.647  0.00  0.00    +0.149 C 
BRANCH  59  61
ATOM     60  C   LEU A   1      15.310  27.241  26.934  0.00  0.00    +0.238 C 
ATOM     61  N   LEU A   2      14.544  28.319  27.025  0.00  0.00    -0.297 N 
ATOM     62  H   LEU A   2      14.963  29.202  27.381  0.00  0.00    +0.150 HD
ATOM     63  O   LEU A   1      14.827  26.137  26.587  0.00  0.00    -0.274 OA
BRANCH  60  64
ATOM     64  CA  LEU A   1      16.776  27.346  27.174  0.00  0.00    +0.145 C 
BRANCH  64  65
ATOM     65  N   LEU A   1      17.196  26.431  28.202  0.00  0.00    -0.238 NA
ATOM     66  H   LEU A   1      17.366  25.446  27.914  0.00  0.00    +0.142 HD
ENDBRANCH  64  65
BRANCH  64  67
ATOM     67  CB  LEU A   1      17.575  27.022  25.913  0.00  0.00    +0.026 C 
BRANCH  67  68
ATOM     68  CG  LEU A   1      17.368  27.876  24.693  0.00  0.00    +0.002 C 
ATOM     69  CD2 LEU A   1      17.853  29.274  24.944  0.00  0.00    +0.000 C 
ATOM     70  CD1 LEU A   1      18.175  27.282  23.527  0.00  0.00    +0.000 C 
ENDBRANCH  67  68
ENDBRANCH  64  67
ENDBRANCH  60  64
ENDBRANCH  59  61
BRANCH  59  71
ATOM     71  CB  LEU A   2      12.410  29.520  27.222  0.00  0.00    +0.029 C 
BRANCH  71  72
ATOM     72  CG  LEU A   2      12.527  29.680  28.757  0.00  0.00    +0.002 C 
ATOM     73  CD2 LEU A   2      11.954  28.478  29.480  0.00  0.00    +0.000 C 
ATOM     74  CD1 LEU A   2      11.796  30.993  29.105  0.00  0.00    +0.000 C 
ENDBRANCH  71  72
ENDBRANCH  59  71
ENDBRANCH  55  59
ENDBRANCH  54  56
BRANCH  54  75
ATOM     75  CB  ASP A   3      13.503  25.875  22.880  0.00  0.00    +0.143 C 
BRANCH  75  76
ATOM     76  CG  ASP A   3      13.744  25.679  21.397  0.00  0.00    +0.367 C 
ATOM     77  OD2 ASP A   3      14.556  24.778  21.185  0.00  0.00    -0.246 OA
ATOM     78  OD1 ASP A   3      13.145  26.451  20.605  0.00  0.00    -0.246 OA
ENDBRANCH  75  76
ENDBRANCH  54  75
ENDBRANCH  50  54
ENDBRANCH  49  52
BRANCH  49  79
ATOM     79  CB  THR A   4       8.733  28.925  20.935  0.00  0.00    +0.137 C 
ATOM     80  CG2 THR A   4       8.488  29.761  22.210  0.00  0.00    +0.034 C 
BRANCH  79  81
ATOM     81  OG1 THR A   4       9.594  29.642  20.079  0.00  0.00    -0.382 OA
ATOM     82  HG1 THR A   4       9.728  29.129  19.243  0.00  0.00    +0.210 HD
ENDBRANCH  79  81
ENDBRANCH  49  79
ENDBRANCH  45  49
ENDBRANCH  44  47
ENDBRANCH   1  44
TORSDOF 35
REMARK  Name = ../refined-set-2016/3djk/3djk_pocket.pdb
REMARK  232 active torsions:
REMARK  status: ('A' for Active; 'I' for Inactive)
REMARK    1  A    between atoms: _1  and  _3
REMARK    2  A    between atoms: _3  and  _4
REMARK    3  A    between atoms: _3  and  _6
REMARK    4  A    between atoms: _6  and  _7
REMARK    5  A    between atoms: _7  and  _8
REMARK    6  A    between atoms: _8  and  _9
REMARK    7  A    between atoms: _9  and  _11
REMARK    8  A    between atoms: _11  and  _15
REMARK    9  A    between atoms: _18  and  _20
REMARK   10  A    between atoms: _20  and  _21
REMARK   11  A    between atoms: _20  and  _23
REMARK   12  A    between atoms: _23  and  _24
REMARK   13  A    between atoms: _27  and  _29
REMARK   14  A    between atoms: _29  and  _30
REMARK   15  A    between atoms: _29  and  _32
REMARK   16  A    between atoms: _32  and  _33
REMARK   17  A    between atoms: _36  and  _38
REMARK   18  A    between atoms: _38  and  _39
REMARK   19  A    between atoms: _38  and  _41
REMARK   20  A    between atoms: _41  and  _42
REMARK   21  A    between atoms: _45  and  _47
REMARK   22  A    between atoms: _47  and  _48
REMARK   23  A    between atoms: _47  and  _50
REMARK   24  A    between atoms: _50  and  _51
REMARK   25  A    between atoms: _54  and  _56
REMARK   26  A    between atoms: _56  and  _57
REMARK   27  A    between atoms: _59  and  _61
REMARK   28  A    between atoms: _61  and  _62
REMARK   29  A    between atoms: _65  and  _67
REMARK   30  A    between atoms: _67  and  _68
REMARK   31  A    between atoms: _67  and  _70
REMARK   32  A    between atoms: _70  and  _71
REMARK   33  A    between atoms: _74  and  _76
REMARK   34  A    between atoms: _76  and  _77
REMARK   35  A    between atoms: _76  and  _79
REMARK   36  A    between atoms: _79  and  _80
REMARK   37  A    between atoms: _83  and  _85
REMARK   38  A    between atoms: _85  and  _86
REMARK   39  A    between atoms: _85  and  _88
REMARK   40  A    between atoms: _88  and  _89
REMARK   41  A    between atoms: _92  and  _94
REMARK   42  A    between atoms: _94  and  _95
REMARK   43  A    between atoms: _94  and  _97
REMARK   44  A    between atoms: _100  and  _102
REMARK   45  A    between atoms: _102  and  _103
REMARK   46  A    between atoms: _102  and  _105
REMARK   47  A    between atoms: _105  and  _106
REMARK   48  A    between atoms: _106  and  _107
REMARK   49  A    between atoms: _107  and  _108
REMARK   50  A    between atoms: _108  and  _109
REMARK   51  A    between atoms: _113  and  _115
REMARK   52  A    between atoms: _115  and  _116
REMARK   53  A    between atoms: _115  and  _118
REMARK   54  A    between atoms: _118  and  _119
REMARK   55  A    between atoms: _119  and  _120
REMARK   56  A    between atoms: _122  and  _124
REMARK   57  A    between atoms: _124  and  _125
REMARK   58  A    between atoms: _124  and  _127
REMARK   59  A    between atoms: _127  and  _128
REMARK   60  A    between atoms: _131  and  _133
REMARK   61  A    between atoms: _133  and  _134
REMARK   62  A    between atoms: _136  and  _138
REMARK   63  A    between atoms: _138  and  _139
REMARK   64  A    between atoms: _141  and  _143
REMARK   65  A    between atoms: _143  and  _144
REMARK   66  A    between atoms: _143  and  _146
REMARK   67  A    between atoms: _146  and  _147
REMARK   68  A    between atoms: _150  and  _152
REMARK   69  A    between atoms: _152  and  _153
REMARK   70  A    between atoms: _155  and  _157
REMARK   71  A    between atoms: _157  and  _158
REMARK   72  A    between atoms: _160  and  _162
REMARK   73  A    between atoms: _162  and  _163
REMARK   74  A    between atoms: _162  and  _165
REMARK   75  A    between atoms: _165  and  _166
REMARK   76  A    between atoms: _172  and  _174
REMARK   77  A    between atoms: _174  and  _175
REMARK   78  A    between atoms: _174  and  _177
REMARK   79  A    between atoms: _177  and  _178
REMARK   80  A    between atoms: _181  and  _183
REMARK   81  A    between atoms: _183  and  _184
REMARK   82  A    between atoms: _183  and  _186
REMARK   83  A    between atoms: _189  and  _191
REMARK   84  A    between atoms: _191  and  _192
REMARK   85  A    between atoms: _191  and  _194
REMARK   86  A    between atoms: _194  and  _195
REMARK   87  A    between atoms: _199  and  _200
REMARK   88  A    between atoms: _205  and  _207
REMARK   89  A    between atoms: _207  and  _208
REMARK   90  A    between atoms: _207  and  _210
REMARK   91  A    between atoms: _210  and  _211
REMARK   92  A    between atoms: _215  and  _216
REMARK   93  A    between atoms: _221  and  _223
REMARK   94  A    between atoms: _223  and  _224
REMARK   95  A    between atoms: _223  and  _226
REMARK   96  A    between atoms: _229  and  _231
REMARK   97  A    between atoms: _231  and  _232
REMARK   98  A    between atoms: _231  and  _234
REMARK   99  A    between atoms: _234  and  _235
REMARK  100  A    between atoms: _240  and  _242
REMARK  101  A    between atoms: _242  and  _243
REMARK  102  A    between atoms: _242  and  _245
REMARK  103  A    between atoms: _245  and  _246
REMARK  104  A    between atoms: _249  and  _251
REMARK  105  A    between atoms: _251  and  _252
REMARK  106  A    between atoms: _251  and  _254
REMARK  107  A    between atoms: _254  and  _255
REMARK  108  A    between atoms: _258  and  _260
REMARK  109  A    between atoms: _260  and  _261
REMARK  110  A    between atoms: _263  and  _265
REMARK  111  A    between atoms: _265  and  _266
REMARK  112  A    between atoms: _265  and  _268
REMARK  113  A    between atoms: _268  and  _269
REMARK  114  A    between atoms: _269  and  _270
REMARK  115  A    between atoms: _270  and  _271
REMARK  116  A    between atoms: _280  and  _282
REMARK  117  A    between atoms: _282  and  _283
REMARK  118  A    between atoms: _282  and  _285
REMARK  119  A    between atoms: _285  and  _286
REMARK  120  A    between atoms: _291  and  _293
REMARK  121  A    between atoms: _293  and  _294
REMARK  122  A    between atoms: _293  and  _296
REMARK  123  A    between atoms: _296  and  _297
REMARK  124  A    between atoms: _297  and  _298
REMARK  125  A    between atoms: _298  and  _299
REMARK  126  A    between atoms: _308  and  _310
REMARK  127  A    between atoms: _310  and  _311
REMARK  128  A    between atoms: _310  and  _313
REMARK  129  A    between atoms: _313  and  _314
REMARK  130  A    between atoms: _317  and  _319
REMARK  131  A    between atoms: _319  and  _320
REMARK  132  A    between atoms: _319  and  _322
REMARK  133  A    between atoms: _322  and  _323
REMARK  134  A    between atoms: _326  and  _328
REMARK  135  A    between atoms: _328  and  _329
REMARK  136  A    between atoms: _328  and  _331
REMARK  137  A    between atoms: _331  and  _332
REMARK  138  A    between atoms: _335  and  _337
REMARK  139  A    between atoms: _337  and  _338
REMARK  140  A    between atoms: _337  and  _340
REMARK  141  A    between atoms: _340  and  _341
REMARK  142  A    between atoms: _344  and  _346
REMARK  143  A    between atoms: _346  and  _347
REMARK  144  A    between atoms: _349  and  _351
REMARK  145  A    between atoms: _351  and  _352
REMARK  146  A    between atoms: _355  and  _357
REMARK  147  A    between atoms: _357  and  _358
REMARK  148  A    between atoms: _357  and  _360
REMARK  149  A    between atoms: _360  and  _361
REMARK  150  A    between atoms: _364  and  _366
REMARK  151  A    between atoms: _366  and  _367
REMARK  152  A    between atoms: _366  and  _369
REMARK  153  A    between atoms: _369  and  _370
REMARK  154  A    between atoms: _373  and  _375
REMARK  155  A    between atoms: _375  and  _376
REMARK  156  A    between atoms: _375  and  _378
REMARK  157  A    between atoms: _378  and  _379
REMARK  158  A    between atoms: _382  and  _384
REMARK  159  A    between atoms: _384  and  _385
REMARK  160  A    between atoms: _384  and  _387
REMARK  161  A    between atoms: _390  and  _392
REMARK  162  A    between atoms: _392  and  _393
REMARK  163  A    between atoms: _392  and  _395
REMARK  164  A    between atoms: _395  and  _396
REMARK  165  A    between atoms: _396  and  _397
REMARK  166  A    between atoms: _397  and  _398
REMARK  167  A    between atoms: _398  and  _399
REMARK  168  A    between atoms: _403  and  _405
REMARK  169  A    between atoms: _405  and  _406
REMARK  170  A    between atoms: _405  and  _408
REMARK  171  A    between atoms: _408  and  _409
REMARK  172  A    between atoms: _409  and  _410
REMARK  173  A    between atoms: _412  and  _414
REMARK  174  A    between atoms: _414  and  _415
REMARK  175  A    between atoms: _414  and  _417
REMARK  176  A    between atoms: _417  and  _418
REMARK  177  A    between atoms: _421  and  _423
REMARK  178  A    between atoms: _423  and  _424
REMARK  179  A    between atoms: _426  and  _428
REMARK  180  A    between atoms: _428  and  _429
REMARK  181  A    between atoms: _431  and  _433
REMARK  182  A    between atoms: _433  and  _434
REMARK  183  A    between atoms: _433  and  _436
REMARK  184  A    between atoms: _436  and  _437
REMARK  185  A    between atoms: _440  and  _442
REMARK  186  A    between atoms: _442  and  _443
REMARK  187  A    between atoms: _445  and  _447
REMARK  188  A    between atoms: _447  and  _448
REMARK  189  A    between atoms: _450  and  _452
REMARK  190  A    between atoms: _452  and  _453
REMARK  191  A    between atoms: _452  and  _455
REMARK  192  A    between atoms: _455  and  _456
REMARK  193  A    between atoms: _462  and  _464
REMARK  194  A    between atoms: _464  and  _465
REMARK  195  A    between atoms: _464  and  _467
REMARK  196  A    between atoms: _467  and  _468
REMARK  197  A    between atoms: _471  and  _473
REMARK  198  A    between atoms: _473  and  _474
REMARK  199  A    between atoms: _473  and  _476
REMARK  200  A    between atoms: _476  and  _477
REMARK  201  A    between atoms: _480  and  _482
REMARK  202  A    between atoms: _482  and  _483
REMARK  203  A    between atoms: _482  and  _485
REMARK  204  A    between atoms: _485  and  _486
REMARK  205  A    between atoms: _490  and  _491
REMARK  206  A    between atoms: _496  and  _498
REMARK  207  A    between atoms: _498  and  _499
REMARK  208  A    between atoms: _498  and  _501
REMARK  209  A    between atoms: _504  and  _506
REMARK  210  A    between atoms: _506  and  _507
REMARK  211  A    between atoms: _506  and  _509
REMARK  212  A    between atoms: _509  and  _510
REMARK  213  A    between atoms: _515  and  _517
REMARK  214  A    between atoms: _517  and  _518
REMARK  215  A    between atoms: _517  and  _520
REMARK  216  A    between atoms: _520  and  _521
REMARK  217  A    between atoms: _524  and  _526
REMARK  218  A    between atoms: _526  and  _527
REMARK  219  A    between atoms: _526  and  _529
REMARK  220  A    between atoms: _529  and  _530
REMARK  221  A    between atoms: _533  and  _535
REMARK  222  A    between atoms: _535  and  _536
REMARK  223  A    between atoms: _538  and  _540
REMARK  224  A    between atoms: _540  and  _541
REMARK  225  A    between atoms: _540  and  _543
REMARK  226  A    between atoms: _543  and  _544
REMARK  227  A    between atoms: _544  and  _545
REMARK  228  A    between atoms: _545  and  _546
REMARK  229  A    between atoms: _555  and  _557
REMARK  230  A    between atoms: _557  and  _558
REMARK  231  A    between atoms: _557  and  _560
REMARK  232  A    between atoms: _560  and  _561
REMARK                            x       y       z     vdW  Elec       q    Type
REMARK                         _______ _______ _______ _____ _____    ______ ____
ROOT
ATOM      1  C   GLY A   5      17.160  18.341  13.959  0.00  0.00    +0.243 C 
ATOM      2  N   ILE A   6      17.873  19.445  14.047  0.00  0.00    -0.297 N 
ATOM      3  H   ILE A   6      18.061  19.883  14.971  0.00  0.00    +0.150 HD
ATOM      4  O   GLY A   5      17.019  17.740  12.864  0.00  0.00    -0.273 OA
ENDROOT
BRANCH   2   5
ATOM      5  CA  ILE A   6      18.393  20.039  12.824  0.00  0.00    +0.149 C 
BRANCH   5   6
ATOM      6  C   ILE A   6      19.357  19.117  12.135  0.00  0.00    +0.241 C 
ATOM      7  N   GLY A   7      20.102  18.311  12.849  0.00  0.00    -0.295 N 
ATOM      8  H   GLY A   7      19.954  18.282  13.878  0.00  0.00    +0.150 HD
ATOM      9  O   ILE A   6      19.469  19.158  10.869  0.00  0.00    -0.273 OA
BRANCH   7  10
ATOM     10  CA  GLY A   7      21.127  17.453  12.272  0.00  0.00    +0.176 C 
BRANCH  10  11
ATOM     11  C   GLY A   7      20.756  16.052  11.988  0.00  0.00    +0.243 C 
ATOM     12  N   GLY A   8      19.546  15.660  12.333  0.00  0.00    -0.295 N 
ATOM     13  H   GLY A   8      18.903  16.361  12.753  0.00  0.00    +0.150 HD
ATOM     14  O   GLY A   7      21.537  15.296  11.408  0.00  0.00    -0.273 OA
BRANCH  12  15
ATOM     15  CA  GLY A   8      19.063  14.308  12.159  0.00  0.00    +0.176 C 
BRANCH  15  16
ATOM     16  C   GLY A   8      18.341  13.794  13.425  0.00  0.00    +0.243 C 
ATOM     17  O   GLY A   8      18.062  14.506  14.357  0.00  0.00    -0.273 OA
ATOM     18  N   PHE A   9      18.060  12.480  13.337  0.00  0.00    -0.297 N 
ATOM     19  H   PHE A   9      18.397  11.942  12.514  0.00  0.00    +0.150 HD
BRANCH  18  20
ATOM     20  CA  PHE A   9      17.289  11.792  14.377  0.00  0.00    +0.153 C 
BRANCH  20  21
ATOM     21  C   PHE A   9      18.189  11.158  15.417  0.00  0.00    +0.241 C 
ATOM     22  N   ILE A  10      17.828  11.163  16.661  0.00  0.00    -0.298 N 
ATOM     23  H   ILE A  10      16.950  11.674  16.886  0.00  0.00    +0.150 HD
ATOM     24  O   PHE A   9      19.227  10.594  15.032  0.00  0.00    -0.273 OA
BRANCH  22  25
ATOM     25  CA  ILE A  10      18.499  10.547  17.755  0.00  0.00    +0.137 C 
BRANCH  25  26
ATOM     26  C   ILE A  10      17.484   9.861  18.663  0.00  0.00    +0.227 C 
ATOM     27  O   ILE A  10      16.316  10.247  18.718  0.00  0.00    -0.286 OA
ENDBRANCH  25  26
BRANCH  25  28
ATOM     28  CB  ILE A  10      19.323  11.509  18.627  0.00  0.00    +0.026 C 
ATOM     29  CG2 ILE A  10      20.437  12.175  17.772  0.00  0.00    +0.002 C 
BRANCH  28  30
ATOM     30  CG1 ILE A  10      18.502  12.538  19.376  0.00  0.00    +0.002 C 
ATOM     31  CD1 ILE A  10      19.070  13.341  20.544  0.00  0.00    +0.000 C 
ENDBRANCH  28  30
ENDBRANCH  25  28
ENDBRANCH  22  25
ENDBRANCH  20  21
BRANCH  20  32
ATOM     32  CB  PHE A   9      16.410  10.713  13.687  0.00  0.00    +0.055 C 
BRANCH  32  33
ATOM     33  CG  PHE A   9      15.148  11.366  13.124  0.00  0.00    -0.020 A 
ATOM     34  CD2 PHE A   9      14.005  11.380  13.915  0.00  0.00    -0.004 A 
ATOM     35  CE2 PHE A   9      12.837  11.959  13.462  0.00  0.00    -0.000 A 
ATOM     36  CZ  PHE A   9      12.806  12.541  12.217  0.00  0.00    -0.000 A 
ATOM     37  CE1 PHE A   9      13.960  12.550  11.431  0.00  0.00    -0.000 A 
ATOM     38  CD1 PHE A   9      15.126  11.954  11.869  0.00  0.00    -0.004 A 
ENDBRANCH  32  33
ENDBRANCH  20  32
ENDBRANCH  18  20
ENDBRANCH  15  16
ENDBRANCH  12  15
ENDBRANCH  10  11
ENDBRANCH   7  10
ENDBRANCH   5   6
BRANCH   5  39
ATOM     39  CB  ILE A   6      19.047  21.438  13.113  0.00  0.00    +0.027 C 
ATOM     40  CG2 ILE A   6      20.351  21.275  13.832  0.00  0.00    +0.002 C 
BRANCH  39  41
ATOM     41  CG1 ILE A   6      19.071  22.251  11.813  0.00  0.00    +0.002 C 
ATOM     42  CD1 ILE A   6      19.340  23.687  11.972  0.00  0.00    +0.000 C 
ENDBRANCH  39  41
ENDBRANCH   5  39
ENDBRANCH   2   5
BRANCH   1  43
ATOM     43  CA  GLY A   5      16.525  17.876  15.240  0.00  0.00    +0.176 C 
BRANCH  43  45
ATOM     44  C   GLY A   4      14.801  16.182  14.993  0.00  0.00    +0.243 C 
ATOM     45  N   GLY A   5      16.076  16.508  15.140  0.00  0.00    -0.295 N 
ATOM     46  H   GLY A   5      16.783  15.747  15.185  0.00  0.00    +0.150 HD
ATOM     47  O   GLY A   4      13.900  17.012  14.983  0.00  0.00    -0.273 OA
BRANCH  44  48
ATOM     48  CA  GLY A   4      14.553  14.719  14.797  0.00  0.00    +0.176 C 
BRANCH  48  51
ATOM     49  C   ILE A   3      14.333  13.391  16.820  0.00  0.00    +0.241 C 
ATOM     50  O   ILE A   3      15.522  13.004  16.755  0.00  0.00    -0.273 OA
ATOM     51  N   GLY A   4      13.766  14.236  15.964  0.00  0.00    -0.295 N 
ATOM     52  H   GLY A   4      12.787  14.555  16.108  0.00  0.00    +0.150 HD
BRANCH  49  53
ATOM     53  CA  ILE A   3      13.398  12.897  17.896  0.00  0.00    +0.149 C 
BRANCH  53  55
ATOM     54  C   MET A   2      12.782  10.588  18.144  0.00  0.00    +0.241 C 
ATOM     55  N   ILE A   3      13.747  11.494  18.192  0.00  0.00    -0.297 N 
ATOM     56  H   ILE A   3      14.723  11.224  18.431  0.00  0.00    +0.150 HD
ATOM     57  O   MET A   2      11.578  10.833  17.971  0.00  0.00    -0.273 OA
BRANCH  54  58
ATOM     58  CA  MET A   2      13.180   9.134  18.388  0.00  0.00    +0.149 C 
BRANCH  58  61
ATOM     59  C   LYS A   1      12.684   8.349  20.671  0.00  0.00    +0.238 C 
ATOM     60  O   LYS A   1      13.829   8.457  21.080  0.00  0.00    -0.274 OA
ATOM     61  N   MET A   2      12.334   8.572  19.416  0.00  0.00    -0.297 N 
ATOM     62  H   MET A   2      11.362   8.320  19.144  0.00  0.00    +0.150 HD
BRANCH  59  63
ATOM     63  CA  LYS A   1      11.558   7.948  21.608  0.00  0.00    +0.145 C 
BRANCH  63  64
ATOM     64  N   LYS A   1      12.081   6.962  22.527  0.00  0.00    -0.238 NA
ATOM     65  H   LYS A   1      13.089   6.991  22.780  0.00  0.00    +0.142 HD
ENDBRANCH  63  64
BRANCH  63  66
ATOM     66  CB  LYS A   1      11.005   9.173  22.351  0.00  0.00    +0.026 C 
BRANCH  66  67
ATOM     67  CG  LYS A   1      10.192  10.098  21.419  0.00  0.00    -0.000 C 
BRANCH  67  68
ATOM     68  CD  LYS A   1       9.453  11.176  22.132  0.00  0.00    -0.024 C 
BRANCH  68  69
ATOM     69  CE  LYS A   1       8.804  12.042  21.082  0.00  0.00    -0.086 C 
BRANCH  69  70
ATOM     70  NZ  LYS A   1       7.530  11.496  20.587  0.00  0.00    +0.380 N 
ATOM     71  HZ1 LYS A   1       6.862  11.407  21.379  0.00  0.00    -0.089 HD
ATOM     72  HZ2 LYS A   1       7.696  10.560  20.165  0.00  0.00    -0.089 HD
ATOM     73  HZ3 LYS A   1       7.135  12.137  19.869  0.00  0.00    -0.089 HD
ENDBRANCH  69  70
ENDBRANCH  68  69
ENDBRANCH  67  68
ENDBRANCH  66  67
ENDBRANCH  63  66
ENDBRANCH  59  63
ENDBRANCH  58  61
BRANCH  58  74
ATOM     74  CB  MET A   2      13.043   8.397  17.052  0.00  0.00    +0.041 C 
BRANCH  74  75
ATOM     75  CG  MET A   2      13.534   6.980  16.910  0.00  0.00    +0.060 C 
BRANCH  75  76
ATOM     76  SD  MET A   2      15.263   6.819  17.351  0.00  0.00    -0.139 S 
ATOM     77  CE  MET A   2      15.994   7.706  15.976  0.00  0.00    +0.069 C 
ENDBRANCH  75  76
ENDBRANCH  74  75
ENDBRANCH  58  74
ENDBRANCH  54  58
ENDBRANCH  53  55
BRANCH  53  78
ATOM     78  CB  ILE A   3      13.483  13.797  19.132  0.00  0.00    +0.027 C 
ATOM     79  CG2 ILE A   3      12.341  13.506  20.093  0.00  0.00    +0.002 C 
BRANCH  78  80
ATOM     80  CG1 ILE A   3      14.879  13.790  19.794  0.00  0.00    +0.002 C 
ATOM     81  CD1 ILE A   3      15.084  14.776  20.919  0.00  0.00    +0.000 C 
ENDBRANCH  78  80
ENDBRANCH  53  78
ENDBRANCH  49  53
ENDBRANCH  48  51
ENDBRANCH  44  48
ENDBRANCH  43  45
ENDBRANCH   1  43
TORSDOF 36
REMARK  Name = ../refined-set-2016/3djk/3djk_pocket.pdb
REMARK  232 active torsions:
REMARK  status: ('A' for Active; 'I' for Inactive)
REMARK    1  A    between atoms: _1  and  _3
REMARK    2  A    between atoms: _3  and  _4
REMARK    3  A    between atoms: _3  and  _6
REMARK    4  A    between atoms: _6  and  _7
REMARK    5  A    between atoms: _7  and  _8
REMARK    6  A    between atoms: _8  and  _9
REMARK    7  A    between atoms: _9  and  _11
REMARK    8  A    between atoms: _11  and  _15
REMARK    9  A    between atoms: _18  and  _20
REMARK   10  A    between atoms: _20  and  _21
REMARK   11  A    between atoms: _20  and  _23
REMARK   12  A    between atoms: _23  and  _24
REMARK   13  A    between atoms: _27  and  _29
REMARK   14  A    between atoms: _29  and  _30
REMARK   15  A    between atoms: _29  and  _32
REMARK   16  A    between atoms: _32  and  _33
REMARK   17  A    between atoms: _36  and  _38
REMARK   18  A    between atoms: _38  and  _39
REMARK   19  A    between atoms: _38  and  _41
REMARK   20  A    between atoms: _41  and  _42
REMARK   21  A    between atoms: _45  and  _47
REMARK   22  A    between atoms: _47  and  _48
REMARK   23  A    between atoms: _47  and  _50
REMARK   24  A    between atoms: _50  and  _51
REMARK   25  A    between atoms: _54  and  _56
REMARK   26  A    between atoms: _56  and  _57
REMARK   27  A    between atoms: _59  and  _61
REMARK   28  A    between atoms: _61  and  _62
REMARK   29  A    between atoms: _65  and  _67
REMARK   30  A    between atoms: _67  and  _68
REMARK   31  A    between atoms: _67  and  _70
REMARK   32  A    between atoms: _70  and  _71
REMARK   33  A    between atoms: _74  and  _76
REMARK   34  A    between atoms: _76  and  _77
REMARK   35  A    between atoms: _76  and  _79
REMARK   36  A    between atoms: _79  and  _80
REMARK   37  A    between atoms: _83  and  _85
REMARK   38  A    between atoms: _85  and  _86
REMARK   39  A    between atoms: _85  and  _88
REMARK   40  A    between atoms: _88  and  _89
REMARK   41  A    between atoms: _92  and  _94
REMARK   42  A    between atoms: _94  and  _95
REMARK   43  A    between atoms: _94  and  _97
REMARK   44  A    between atoms: _100  and  _102
REMARK   45  A    between atoms: _102  and  _103
REMARK   46  A    between atoms: _102  and  _105
REMARK   47  A    between atoms: _105  and  _106
REMARK   48  A    between atoms: _106  and  _107
REMARK   49  A    between atoms: _107  and  _108
REMARK   50  A    between atoms: _108  and  _109
REMARK   51  A    between atoms: _113  and  _115
REMARK   52  A    between atoms: _115  and  _116
REMARK   53  A    between atoms: _115  and  _118
REMARK   54  A    between atoms: _118  and  _119
REMARK   55  A    between atoms: _119  and  _120
REMARK   56  A    between atoms: _122  and  _124
REMARK   57  A    between atoms: _124  and  _125
REMARK   58  A    between atoms: _124  and  _127
REMARK   59  A    between atoms: _127  and  _128
REMARK   60  A    between atoms: _131  and  _133
REMARK   61  A    between atoms: _133  and  _134
REMARK   62  A    between atoms: _136  and  _138
REMARK   63  A    between atoms: _138  and  _139
REMARK   64  A    between atoms: _141  and  _143
REMARK   65  A    between atoms: _143  and  _144
REMARK   66  A    between atoms: _143  and  _146
REMARK   67  A    between atoms: _146  and  _147
REMARK   68  A    between atoms: _150  and  _152
REMARK   69  A    between atoms: _152  and  _153
REMARK   70  A    between atoms: _155  and  _157
REMARK   71  A    between atoms: _157  and  _158
REMARK   72  A    between atoms: _160  and  _162
REMARK   73  A    between atoms: _162  and  _163
REMARK   74  A    between atoms: _162  and  _165
REMARK   75  A    between atoms: _165  and  _166
REMARK   76  A    between atoms: _172  and  _174
REMARK   77  A    between atoms: _174  and  _175
REMARK   78  A    between atoms: _174  and  _177
REMARK   79  A    between atoms: _177  and  _178
REMARK   80  A    between atoms: _181  and  _183
REMARK   81  A    between atoms: _183  and  _184
REMARK   82  A    between atoms: _183  and  _186
REMARK   83  A    between atoms: _189  and  _191
REMARK   84  A    between atoms: _191  and  _192
REMARK   85  A    between atoms: _191  and  _194
REMARK   86  A    between atoms: _194  and  _195
REMARK   87  A    between atoms: _199  and  _200
REMARK   88  A    between atoms: _205  and  _207
REMARK   89  A    between atoms: _207  and  _208
REMARK   90  A    between atoms: _207  and  _210
REMARK   91  A    between atoms: _210  and  _211
REMARK   92  A    between atoms: _215  and  _216
REMARK   93  A    between atoms: _221  and  _223
REMARK   94  A    between atoms: _223  and  _224
REMARK   95  A    between atoms: _223  and  _226
REMARK   96  A    between atoms: _229  and  _231
REMARK   97  A    between atoms: _231  and  _232
REMARK   98  A    between atoms: _231  and  _234
REMARK   99  A    between atoms: _234  and  _235
REMARK  100  A    between atoms: _240  and  _242
REMARK  101  A    between atoms: _242  and  _243
REMARK  102  A    between atoms: _242  and  _245
REMARK  103  A    between atoms: _245  and  _246
REMARK  104  A    between atoms: _249  and  _251
REMARK  105  A    between atoms: _251  and  _252
REMARK  106  A    between atoms: _251  and  _254
REMARK  107  A    between atoms: _254  and  _255
REMARK  108  A    between atoms: _258  and  _260
REMARK  109  A    between atoms: _260  and  _261
REMARK  110  A    between atoms: _263  and  _265
REMARK  111  A    between atoms: _265  and  _266
REMARK  112  A    between atoms: _265  and  _268
REMARK  113  A    between atoms: _268  and  _269
REMARK  114  A    between atoms: _269  and  _270
REMARK  115  A    between atoms: _270  and  _271
REMARK  116  A    between atoms: _280  and  _282
REMARK  117  A    between atoms: _282  and  _283
REMARK  118  A    between atoms: _282  and  _285
REMARK  119  A    between atoms: _285  and  _286
REMARK  120  A    between atoms: _291  and  _293
REMARK  121  A    between atoms: _293  and  _294
REMARK  122  A    between atoms: _293  and  _296
REMARK  123  A    between atoms: _296  and  _297
REMARK  124  A    between atoms: _297  and  _298
REMARK  125  A    between atoms: _298  and  _299
REMARK  126  A    between atoms: _308  and  _310
REMARK  127  A    between atoms: _310  and  _311
REMARK  128  A    between atoms: _310  and  _313
REMARK  129  A    between atoms: _313  and  _314
REMARK  130  A    between atoms: _317  and  _319
REMARK  131  A    between atoms: _319  and  _320
REMARK  132  A    between atoms: _319  and  _322
REMARK  133  A    between atoms: _322  and  _323
REMARK  134  A    between atoms: _326  and  _328
REMARK  135  A    between atoms: _328  and  _329
REMARK  136  A    between atoms: _328  and  _331
REMARK  137  A    between atoms: _331  and  _332
REMARK  138  A    between atoms: _335  and  _337
REMARK  139  A    between atoms: _337  and  _338
REMARK  140  A    between atoms: _337  and  _340
REMARK  141  A    between atoms: _340  and  _341
REMARK  142  A    between atoms: _344  and  _346
REMARK  143  A    between atoms: _346  and  _347
REMARK  144  A    between atoms: _349  and  _351
REMARK  145  A    between atoms: _351  and  _352
REMARK  146  A    between atoms: _355  and  _357
REMARK  147  A    between atoms: _357  and  _358
REMARK  148  A    between atoms: _357  and  _360
REMARK  149  A    between atoms: _360  and  _361
REMARK  150  A    between atoms: _364  and  _366
REMARK  151  A    between atoms: _366  and  _367
REMARK  152  A    between atoms: _366  and  _369
REMARK  153  A    between atoms: _369  and  _370
REMARK  154  A    between atoms: _373  and  _375
REMARK  155  A    between atoms: _375  and  _376
REMARK  156  A    between atoms: _375  and  _378
REMARK  157  A    between atoms: _378  and  _379
REMARK  158  A    between atoms: _382  and  _384
REMARK  159  A    between atoms: _384  and  _385
REMARK  160  A    between atoms: _384  and  _387
REMARK  161  A    between atoms: _390  and  _392
REMARK  162  A    between atoms: _392  and  _393
REMARK  163  A    between atoms: _392  and  _395
REMARK  164  A    between atoms: _395  and  _396
REMARK  165  A    between atoms: _396  and  _397
REMARK  166  A    between atoms: _397  and  _398
REMARK  167  A    between atoms: _398  and  _399
REMARK  168  A    between atoms: _403  and  _405
REMARK  169  A    between atoms: _405  and  _406
REMARK  170  A    between atoms: _405  and  _408
REMARK  171  A    between atoms: _408  and  _409
REMARK  172  A    between atoms: _409  and  _410
REMARK  173  A    between atoms: _412  and  _414
REMARK  174  A    between atoms: _414  and  _415
REMARK  175  A    between atoms: _414  and  _417
REMARK  176  A    between atoms: _417  and  _418
REMARK  177  A    between atoms: _421  and  _423
REMARK  178  A    between atoms: _423  and  _424
REMARK  179  A    between atoms: _426  and  _428
REMARK  180  A    between atoms: _428  and  _429
REMARK  181  A    between atoms: _431  and  _433
REMARK  182  A    between atoms: _433  and  _434
REMARK  183  A    between atoms: _433  and  _436
REMARK  184  A    between atoms: _436  and  _437
REMARK  185  A    between atoms: _440  and  _442
REMARK  186  A    between atoms: _442  and  _443
REMARK  187  A    between atoms: _445  and  _447
REMARK  188  A    between atoms: _447  and  _448
REMARK  189  A    between atoms: _450  and  _452
REMARK  190  A    between atoms: _452  and  _453
REMARK  191  A    between atoms: _452  and  _455
REMARK  192  A    between atoms: _455  and  _456
REMARK  193  A    between atoms: _462  and  _464
REMARK  194  A    between atoms: _464  and  _465
REMARK  195  A    between atoms: _464  and  _467
REMARK  196  A    between atoms: _467  and  _468
REMARK  197  A    between atoms: _471  and  _473
REMARK  198  A    between atoms: _473  and  _474
REMARK  199  A    between atoms: _473  and  _476
REMARK  200  A    between atoms: _476  and  _477
REMARK  201  A    between atoms: _480  and  _482
REMARK  202  A    between atoms: _482  and  _483
REMARK  203  A    between atoms: _482  and  _485
REMARK  204  A    between atoms: _485  and  _486
REMARK  205  A    between atoms: _490  and  _491
REMARK  206  A    between atoms: _496  and  _498
REMARK  207  A    between atoms: _498  and  _499
REMARK  208  A    between atoms: _498  and  _501
REMARK  209  A    between atoms: _504  and  _506
REMARK  210  A    between atoms: _506  and  _507
REMARK  211  A    between atoms: _506  and  _509
REMARK  212  A    between atoms: _509  and  _510
REMARK  213  A    between atoms: _515  and  _517
REMARK  214  A    between atoms: _517  and  _518
REMARK  215  A    between atoms: _517  and  _520
REMARK  216  A    between atoms: _520  and  _521
REMARK  217  A    between atoms: _524  and  _526
REMARK  218  A    between atoms: _526  and  _527
REMARK  219  A    between atoms: _526  and  _529
REMARK  220  A    between atoms: _529  and  _530
REMARK  221  A    between atoms: _533  and  _535
REMARK  222  A    between atoms: _535  and  _536
REMARK  223  A    between atoms: _538  and  _540
REMARK  224  A    between atoms: _540  and  _541
REMARK  225  A    between atoms: _540  and  _543
REMARK  226  A    between atoms: _543  and  _544
REMARK  227  A    between atoms: _544  and  _545
REMARK  228  A    between atoms: _545  and  _546
REMARK  229  A    between atoms: _555  and  _557
REMARK  230  A    between atoms: _557  and  _558
REMARK  231  A    between atoms: _557  and  _560
REMARK  232  A    between atoms: _560  and  _561
REMARK                            x       y       z     vdW  Elec       q    Type
REMARK                         _______ _______ _______ _____ _____    ______ ____
ROOT
ATOM      1  CA  LEU A   1      13.389  13.424  27.373  0.00  0.00    +0.133 C 
ENDROOT
BRANCH   1   2
ATOM      2  N   LEU A   1      12.534  14.282  28.154  0.00  0.00    -0.239 NA
ATOM      3  H   LEU A   1      12.402  15.265  27.841  0.00  0.00    +0.142 HD
ENDBRANCH   1   2
BRANCH   1   4
ATOM      4  C   LEU A   1      14.830  13.617  27.790  0.00  0.00    +0.224 C 
ATOM      5  O   LEU A   1      15.240  14.750  27.984  0.00  0.00    -0.287 OA
ENDBRANCH   1   4
BRANCH   1   6
ATOM      6  CB  LEU A   1      13.201  13.724  25.875  0.00  0.00    +0.025 C 
BRANCH   6   7
ATOM      7  CG  LEU A   1      11.792  13.757  25.346  0.00  0.00    +0.002 C 
ATOM      8  CD2 LEU A   1      11.030  12.470  25.630  0.00  0.00    +0.000 C 
ATOM      9  CD1 LEU A   1      11.762  14.063  23.856  0.00  0.00    +0.000 C 
ENDBRANCH   6   7
ENDBRANCH   1   6
TORSDOF 4
REMARK  Name = ../refined-set-2016/3djk/3djk_pocket.pdb
REMARK  232 active torsions:
REMARK  status: ('A' for Active; 'I' for Inactive)
REMARK    1  A    between atoms: _1  and  _3
REMARK    2  A    between atoms: _3  and  _4
REMARK    3  A    between atoms: _3  and  _6
REMARK    4  A    between atoms: _6  and  _7
REMARK    5  A    between atoms: _7  and  _8
REMARK    6  A    between atoms: _8  and  _9
REMARK    7  A    between atoms: _9  and  _11
REMARK    8  A    between atoms: _11  and  _15
REMARK    9  A    between atoms: _18  and  _20
REMARK   10  A    between atoms: _20  and  _21
REMARK   11  A    between atoms: _20  and  _23
REMARK   12  A    between atoms: _23  and  _24
REMARK   13  A    between atoms: _27  and  _29
REMARK   14  A    between atoms: _29  and  _30
REMARK   15  A    between atoms: _29  and  _32
REMARK   16  A    between atoms: _32  and  _33
REMARK   17  A    between atoms: _36  and  _38
REMARK   18  A    between atoms: _38  and  _39
REMARK   19  A    between atoms: _38  and  _41
REMARK   20  A    between atoms: _41  and  _42
REMARK   21  A    between atoms: _45  and  _47
REMARK   22  A    between atoms: _47  and  _48
REMARK   23  A    between atoms: _47  and  _50
REMARK   24  A    between atoms: _50  and  _51
REMARK   25  A    between atoms: _54  and  _56
REMARK   26  A    between atoms: _56  and  _57
REMARK   27  A    between atoms: _59  and  _61
REMARK   28  A    between atoms: _61  and  _62
REMARK   29  A    between atoms: _65  and  _67
REMARK   30  A    between atoms: _67  and  _68
REMARK   31  A    between atoms: _67  and  _70
REMARK   32  A    between atoms: _70  and  _71
REMARK   33  A    between atoms: _74  and  _76
REMARK   34  A    between atoms: _76  and  _77
REMARK   35  A    between atoms: _76  and  _79
REMARK   36  A    between atoms: _79  and  _80
REMARK   37  A    between atoms: _83  and  _85
REMARK   38  A    between atoms: _85  and  _86
REMARK   39  A    between atoms: _85  and  _88
REMARK   40  A    between atoms: _88  and  _89
REMARK   41  A    between atoms: _92  and  _94
REMARK   42  A    between atoms: _94  and  _95
REMARK   43  A    between atoms: _94  and  _97
REMARK   44  A    between atoms: _100  and  _102
REMARK   45  A    between atoms: _102  and  _103
REMARK   46  A    between atoms: _102  and  _105
REMARK   47  A    between atoms: _105  and  _106
REMARK   48  A    between atoms: _106  and  _107
REMARK   49  A    between atoms: _107  and  _108
REMARK   50  A    between atoms: _108  and  _109
REMARK   51  A    between atoms: _113  and  _115
REMARK   52  A    between atoms: _115  and  _116
REMARK   53  A    between atoms: _115  and  _118
REMARK   54  A    between atoms: _118  and  _119
REMARK   55  A    between atoms: _119  and  _120
REMARK   56  A    between atoms: _122  and  _124
REMARK   57  A    between atoms: _124  and  _125
REMARK   58  A    between atoms: _124  and  _127
REMARK   59  A    between atoms: _127  and  _128
REMARK   60  A    between atoms: _131  and  _133
REMARK   61  A    between atoms: _133  and  _134
REMARK   62  A    between atoms: _136  and  _138
REMARK   63  A    between atoms: _138  and  _139
REMARK   64  A    between atoms: _141  and  _143
REMARK   65  A    between atoms: _143  and  _144
REMARK   66  A    between atoms: _143  and  _146
REMARK   67  A    between atoms: _146  and  _147
REMARK   68  A    between atoms: _150  and  _152
REMARK   69  A    between atoms: _152  and  _153
REMARK   70  A    between atoms: _155  and  _157
REMARK   71  A    between atoms: _157  and  _158
REMARK   72  A    between atoms: _160  and  _162
REMARK   73  A    between atoms: _162  and  _163
REMARK   74  A    between atoms: _162  and  _165
REMARK   75  A    between atoms: _165  and  _166
REMARK   76  A    between atoms: _172  and  _174
REMARK   77  A    between atoms: _174  and  _175
REMARK   78  A    between atoms: _174  and  _177
REMARK   79  A    between atoms: _177  and  _178
REMARK   80  A    between atoms: _181  and  _183
REMARK   81  A    between atoms: _183  and  _184
REMARK   82  A    between atoms: _183  and  _186
REMARK   83  A    between atoms: _189  and  _191
REMARK   84  A    between atoms: _191  and  _192
REMARK   85  A    between atoms: _191  and  _194
REMARK   86  A    between atoms: _194  and  _195
REMARK   87  A    between atoms: _199  and  _200
REMARK   88  A    between atoms: _205  and  _207
REMARK   89  A    between atoms: _207  and  _208
REMARK   90  A    between atoms: _207  and  _210
REMARK   91  A    between atoms: _210  and  _211
REMARK   92  A    between atoms: _215  and  _216
REMARK   93  A    between atoms: _221  and  _223
REMARK   94  A    between atoms: _223  and  _224
REMARK   95  A    between atoms: _223  and  _226
REMARK   96  A    between atoms: _229  and  _231
REMARK   97  A    between atoms: _231  and  _232
REMARK   98  A    between atoms: _231  and  _234
REMARK   99  A    between atoms: _234  and  _235
REMARK  100  A    between atoms: _240  and  _242
REMARK  101  A    between atoms: _242  and  _243
REMARK  102  A    between atoms: _242  and  _245
REMARK  103  A    between atoms: _245  and  _246
REMARK  104  A    between atoms: _249  and  _251
REMARK  105  A    between atoms: _251  and  _252
REMARK  106  A    between atoms: _251  and  _254
REMARK  107  A    between atoms: _254  and  _255
REMARK  108  A    between atoms: _258  and  _260
REMARK  109  A    between atoms: _260  and  _261
REMARK  110  A    between atoms: _263  and  _265
REMARK  111  A    between atoms: _265  and  _266
REMARK  112  A    between atoms: _265  and  _268
REMARK  113  A    between atoms: _268  and  _269
REMARK  114  A    between atoms: _269  and  _270
REMARK  115  A    between atoms: _270  and  _271
REMARK  116  A    between atoms: _280  and  _282
REMARK  117  A    between atoms: _282  and  _283
REMARK  118  A    between atoms: _282  and  _285
REMARK  119  A    between atoms: _285  and  _286
REMARK  120  A    between atoms: _291  and  _293
REMARK  121  A    between atoms: _293  and  _294
REMARK  122  A    between atoms: _293  and  _296
REMARK  123  A    between atoms: _296  and  _297
REMARK  124  A    between atoms: _297  and  _298
REMARK  125  A    between atoms: _298  and  _299
REMARK  126  A    between atoms: _308  and  _310
REMARK  127  A    between atoms: _310  and  _311
REMARK  128  A    between atoms: _310  and  _313
REMARK  129  A    between atoms: _313  and  _314
REMARK  130  A    between atoms: _317  and  _319
REMARK  131  A    between atoms: _319  and  _320
REMARK  132  A    between atoms: _319  and  _322
REMARK  133  A    between atoms: _322  and  _323
REMARK  134  A    between atoms: _326  and  _328
REMARK  135  A    between atoms: _328  and  _329
REMARK  136  A    between atoms: _328  and  _331
REMARK  137  A    between atoms: _331  and  _332
REMARK  138  A    between atoms: _335  and  _337
REMARK  139  A    between atoms: _337  and  _338
REMARK  140  A    between atoms: _337  and  _340
REMARK  141  A    between atoms: _340  and  _341
REMARK  142  A    between atoms: _344  and  _346
REMARK  143  A    between atoms: _346  and  _347
REMARK  144  A    between atoms: _349  and  _351
REMARK  145  A    between atoms: _351  and  _352
REMARK  146  A    between atoms: _355  and  _357
REMARK  147  A    between atoms: _357  and  _358
REMARK  148  A    between atoms: _357  and  _360
REMARK  149  A    between atoms: _360  and  _361
REMARK  150  A    between atoms: _364  and  _366
REMARK  151  A    between atoms: _366  and  _367
REMARK  152  A    between atoms: _366  and  _369
REMARK  153  A    between atoms: _369  and  _370
REMARK  154  A    between atoms: _373  and  _375
REMARK  155  A    between atoms: _375  and  _376
REMARK  156  A    between atoms: _375  and  _378
REMARK  157  A    between atoms: _378  and  _379
REMARK  158  A    between atoms: _382  and  _384
REMARK  159  A    between atoms: _384  and  _385
REMARK  160  A    between atoms: _384  and  _387
REMARK  161  A    between atoms: _390  and  _392
REMARK  162  A    between atoms: _392  and  _393
REMARK  163  A    between atoms: _392  and  _395
REMARK  164  A    between atoms: _395  and  _396
REMARK  165  A    between atoms: _396  and  _397
REMARK  166  A    between atoms: _397  and  _398
REMARK  167  A    between atoms: _398  and  _399
REMARK  168  A    between atoms: _403  and  _405
REMARK  169  A    between atoms: _405  and  _406
REMARK  170  A    between atoms: _405  and  _408
REMARK  171  A    between atoms: _408  and  _409
REMARK  172  A    between atoms: _409  and  _410
REMARK  173  A    between atoms: _412  and  _414
REMARK  174  A    between atoms: _414  and  _415
REMARK  175  A    between atoms: _414  and  _417
REMARK  176  A    between atoms: _417  and  _418
REMARK  177  A    between atoms: _421  and  _423
REMARK  178  A    between atoms: _423  and  _424
REMARK  179  A    between atoms: _426  and  _428
REMARK  180  A    between atoms: _428  and  _429
REMARK  181  A    between atoms: _431  and  _433
REMARK  182  A    between atoms: _433  and  _434
REMARK  183  A    between atoms: _433  and  _436
REMARK  184  A    between atoms: _436  and  _437
REMARK  185  A    between atoms: _440  and  _442
REMARK  186  A    between atoms: _442  and  _443
REMARK  187  A    between atoms: _445  and  _447
REMARK  188  A    between atoms: _447  and  _448
REMARK  189  A    between atoms: _450  and  _452
REMARK  190  A    between atoms: _452  and  _453
REMARK  191  A    between atoms: _452  and  _455
REMARK  192  A    between atoms: _455  and  _456
REMARK  193  A    between atoms: _462  and  _464
REMARK  194  A    between atoms: _464  and  _465
REMARK  195  A    between atoms: _464  and  _467
REMARK  196  A    between atoms: _467  and  _468
REMARK  197  A    between atoms: _471  and  _473
REMARK  198  A    between atoms: _473  and  _474
REMARK  199  A    between atoms: _473  and  _476
REMARK  200  A    between atoms: _476  and  _477
REMARK  201  A    between atoms: _480  and  _482
REMARK  202  A    between atoms: _482  and  _483
REMARK  203  A    between atoms: _482  and  _485
REMARK  204  A    between atoms: _485  and  _486
REMARK  205  A    between atoms: _490  and  _491
REMARK  206  A    between atoms: _496  and  _498
REMARK  207  A    between atoms: _498  and  _499
REMARK  208  A    between atoms: _498  and  _501
REMARK  209  A    between atoms: _504  and  _506
REMARK  210  A    between atoms: _506  and  _507
REMARK  211  A    between atoms: _506  and  _509
REMARK  212  A    between atoms: _509  and  _510
REMARK  213  A    between atoms: _515  and  _517
REMARK  214  A    between atoms: _517  and  _518
REMARK  215  A    between atoms: _517  and  _520
REMARK  216  A    between atoms: _520  and  _521
REMARK  217  A    between atoms: _524  and  _526
REMARK  218  A    between atoms: _526  and  _527
REMARK  219  A    between atoms: _526  and  _529
REMARK  220  A    between atoms: _529  and  _530
REMARK  221  A    between atoms: _533  and  _535
REMARK  222  A    between atoms: _535  and  _536
REMARK  223  A    between atoms: _538  and  _540
REMARK  224  A    between atoms: _540  and  _541
REMARK  225  A    between atoms: _540  and  _543
REMARK  226  A    between atoms: _543  and  _544
REMARK  227  A    between atoms: _544  and  _545
REMARK  228  A    between atoms: _545  and  _546
REMARK  229  A    between atoms: _555  and  _557
REMARK  230  A    between atoms: _557  and  _558
REMARK  231  A    between atoms: _557  and  _560
REMARK  232  A    between atoms: _560  and  _561
REMARK                            x       y       z     vdW  Elec       q    Type
REMARK                         _______ _______ _______ _____ _____    ______ ____
ROOT
ATOM      1  C   ILE A   5      14.379  22.493  26.794  0.00  0.00    +0.241 C 
ATOM      2  N   ILE A   6      13.669  23.570  27.124  0.00  0.00    -0.297 N 
ATOM      3  H   ILE A   6      14.111  24.507  27.030  0.00  0.00    +0.150 HD
ATOM      4  O   ILE A   5      13.998  21.341  27.020  0.00  0.00    -0.273 OA
ENDROOT
BRANCH   1   5
ATOM      5  CA  ILE A   5      15.743  22.825  26.169  0.00  0.00    +0.149 C 
BRANCH   5   8
ATOM      6  C   ASN A   4      17.861  22.591  27.375  0.00  0.00    +0.241 C 
ATOM      7  O   ASN A   4      18.053  23.829  27.408  0.00  0.00    -0.273 OA
ATOM      8  N   ILE A   5      16.787  22.034  26.839  0.00  0.00    -0.297 N 
ATOM      9  H   ILE A   5      16.677  21.001  26.893  0.00  0.00    +0.150 HD
BRANCH   6  10
ATOM     10  CA  ASN A   4      18.894  21.692  28.029  0.00  0.00    +0.158 C 
BRANCH  10  12
ATOM     11  C   VAL A   3      20.516  22.081  26.266  0.00  0.00    +0.241 C 
ATOM     12  N   ASN A   4      20.205  22.094  27.548  0.00  0.00    -0.297 N 
ATOM     13  H   ASN A   4      20.921  22.402  28.237  0.00  0.00    +0.150 HD
ATOM     14  O   VAL A   3      19.759  21.592  25.432  0.00  0.00    -0.273 OA
BRANCH  11  15
ATOM     15  CA  VAL A   3      21.856  22.674  25.855  0.00  0.00    +0.149 C 
BRANCH  15  18
ATOM     16  C   PRO A   2      23.592  21.905  24.223  0.00  0.00    +0.241 C 
ATOM     17  O   PRO A   2      24.498  22.440  24.857  0.00  0.00    -0.273 OA
ATOM     18  N   VAL A   3      22.347  21.971  24.647  0.00  0.00    -0.297 N 
ATOM     19  H   VAL A   3      21.633  21.478  24.073  0.00  0.00    +0.150 HD
BRANCH  16  23
ATOM     20  C   THR A   1      22.737  19.106  23.504  0.00  0.00    +0.244 C 
ATOM     21  O   THR A   1      23.467  19.058  24.482  0.00  0.00    -0.273 OA
ATOM     22  N   PRO A   2      22.869  20.128  22.658  0.00  0.00    -0.272 N 
ATOM     23  CA  PRO A   2      23.881  21.153  22.937  0.00  0.00    +0.152 C 
ATOM     24  CB  PRO A   2      23.724  22.056  21.729  0.00  0.00    +0.031 C 
ATOM     25  CG  PRO A   2      22.325  21.807  21.237  0.00  0.00    +0.024 C 
ATOM     26  CD  PRO A   2      22.122  20.351  21.418  0.00  0.00    +0.094 C 
BRANCH  20  27
ATOM     27  CA  THR A   1      21.703  18.031  23.268  0.00  0.00    +0.172 C 
BRANCH  27  28
ATOM     28  N   THR A   1      22.203  16.768  23.786  0.00  0.00    -0.236 NA
ATOM     29  H   THR A   1      22.822  16.802  24.621  0.00  0.00    +0.142 HD
ENDBRANCH  27  28
BRANCH  27  30
ATOM     30  CB  THR A   1      20.317  18.306  23.920  0.00  0.00    +0.135 C 
ATOM     31  CG2 THR A   1      20.346  18.378  25.437  0.00  0.00    +0.034 C 
BRANCH  30  32
ATOM     32  OG1 THR A   1      19.858  19.549  23.413  0.00  0.00    -0.383 OA
ATOM     33  HG1 THR A   1      20.504  20.260  23.651  0.00  0.00    +0.210 HD
ENDBRANCH  30  32
ENDBRANCH  27  30
ENDBRANCH  20  27
ENDBRANCH  16  23
ENDBRANCH  15  18
BRANCH  15  34
ATOM     34  CB  VAL A   3      21.737  24.177  25.575  0.00  0.00    +0.027 C 
ATOM     35  CG2 VAL A   3      21.442  25.044  26.782  0.00  0.00    +0.002 C 
ATOM     36  CG1 VAL A   3      20.621  24.455  24.549  0.00  0.00    +0.002 C 
ENDBRANCH  15  34
ENDBRANCH  11  15
ENDBRANCH  10  12
BRANCH  10  37
ATOM     37  CB  ASN A   4      18.812  21.819  29.527  0.00  0.00    +0.114 C 
BRANCH  37  38
ATOM     38  CG  ASN A   4      19.769  20.938  30.268  0.00  0.00    +0.222 C 
ATOM     39  ND2 ASN A   4      20.318  21.401  31.376  0.00  0.00    -0.329 N 
ATOM     40 HD21 ASN A   4      20.986  20.811  31.911  0.00  0.00    +0.145 HD
ATOM     41 HD22 ASN A   4      20.082  22.356  31.714  0.00  0.00    +0.145 HD
ATOM     42  OD1 ASN A   4      20.034  19.788  29.834  0.00  0.00    -0.275 OA
ENDBRANCH  37  38
ENDBRANCH  10  37
ENDBRANCH   6  10
ENDBRANCH   5   8
BRANCH   5  43
ATOM     43  CB  ILE A   5      15.763  22.697  24.609  0.00  0.00    +0.027 C 
ATOM     44  CG2 ILE A   5      17.020  23.300  24.032  0.00  0.00    +0.002 C 
BRANCH  43  45
ATOM     45  CG1 ILE A   5      15.574  21.268  24.154  0.00  0.00    +0.002 C 
ATOM     46  CD1 ILE A   5      15.518  21.060  22.650  0.00  0.00    +0.000 C 
ENDBRANCH  43  45
ENDBRANCH   5  43
ENDBRANCH   1   5
BRANCH   2  47
ATOM     47  CA  ILE A   6      12.304  23.491  27.609  0.00  0.00    +0.149 C 
BRANCH  47  48
ATOM     48  C   ILE A   6      11.395  23.737  26.419  0.00  0.00    +0.241 C 
ATOM     49  N   GLY A   7      10.692  22.684  26.001  0.00  0.00    -0.295 N 
ATOM     50  H   GLY A   7      10.765  21.791  26.529  0.00  0.00    +0.150 HD
ATOM     51  O   ILE A   6      11.384  24.843  25.849  0.00  0.00    -0.273 OA
BRANCH  49  52
ATOM     52  CA  GLY A   7       9.833  22.740  24.842  0.00  0.00    +0.176 C 
BRANCH  52  53
ATOM     53  C   GLY A   7       8.407  23.022  25.198  0.00  0.00    +0.243 C 
ATOM     54  O   GLY A   7       8.024  23.247  26.337  0.00  0.00    -0.273 OA
ATOM     55  N   ARG A   8       7.555  23.001  24.163  0.00  0.00    -0.297 N 
ATOM     56  H   ARG A   8       7.885  22.660  23.237  0.00  0.00    +0.150 HD
BRANCH  55  57
ATOM     57  CA  ARG A   8       6.159  23.452  24.313  0.00  0.00    +0.149 C 
BRANCH  57  58
ATOM     58  C   ARG A   8       5.408  22.603  25.292  0.00  0.00    +0.241 C 
ATOM     59  O   ARG A   8       4.458  23.149  25.903  0.00  0.00    -0.273 OA
ATOM     60  N   ASN A   9       5.726  21.331  25.459  0.00  0.00    -0.298 N 
ATOM     61  H   ASN A   9       6.506  20.904  24.920  0.00  0.00    +0.150 HD
BRANCH  60  62
ATOM     62  CA  ASN A   9       4.955  20.532  26.422  0.00  0.00    +0.146 C 
BRANCH  62  63
ATOM     63  C   ASN A   9       5.001  21.154  27.804  0.00  0.00    +0.227 C 
ATOM     64  O   ASN A   9       3.997  21.024  28.517  0.00  0.00    -0.286 OA
ENDBRANCH  62  63
BRANCH  62  65
ATOM     65  CB  ASN A   9       5.439  19.080  26.433  0.00  0.00    +0.112 C 
BRANCH  65  66
ATOM     66  CG  ASN A   9       6.772  18.889  27.080  0.00  0.00    +0.222 C 
ATOM     67  ND2 ASN A   9       6.804  17.990  28.087  0.00  0.00    -0.329 N 
ATOM     68 HD21 ASN A   9       7.691  17.816  28.601  0.00  0.00    +0.145 HD
ATOM     69 HD22 ASN A   9       5.941  17.472  28.349  0.00  0.00    +0.145 HD
ATOM     70  OD1 ASN A   9       7.763  19.534  26.724  0.00  0.00    -0.275 OA
ENDBRANCH  65  66
ENDBRANCH  62  65
ENDBRANCH  60  62
ENDBRANCH  57  58
BRANCH  57  71
ATOM     71  CB  ARG A   8       5.456  23.505  22.972  0.00  0.00    +0.033 C 
BRANCH  71  72
ATOM     72  CG  ARG A   8       6.060  24.539  22.012  0.00  0.00    +0.045 C 
BRANCH  72  73
ATOM     73  CD  ARG A   8       5.210  24.756  20.753  0.00  0.00    +0.174 C 
BRANCH  73  74
ATOM     74  NE  ARG A   8       5.166  23.510  19.951  0.00  0.00    -0.265 N 
ATOM     75  CZ  ARG A   8       4.179  22.610  19.988  0.00  0.00    +0.342 C 
ATOM     76  NH2 ARG A   8       3.052  22.769  20.694  0.00  0.00    -0.292 N 
ATOM     77 HH21 ARG A   8       2.908  23.632  21.256  0.00  0.00    +0.255 HD
ATOM     78 HH22 ARG A   8       2.321  22.029  20.680  0.00  0.00    +0.255 HD
ATOM     79  NH1 ARG A   8       4.372  21.516  19.251  0.00  0.00    -0.292 N 
ATOM     80 HH11 ARG A   8       3.648  20.770  19.229  0.00  0.00    +0.255 HD
ATOM     81 HH12 ARG A   8       5.247  21.409  18.698  0.00  0.00    +0.255 HD
ATOM     82  HE  ARG A   8       5.964  23.322  19.311  0.00  0.00    +0.259 HD
ENDBRANCH  73  74
ENDBRANCH  72  73
ENDBRANCH  71  72
ENDBRANCH  57  71
ENDBRANCH  55  57
ENDBRANCH  52  53
ENDBRANCH  49  52
ENDBRANCH  47  48
BRANCH  47  83
ATOM     83  CB  ILE A   6      12.021  24.510  28.726  0.00  0.00    +0.027 C 
ATOM     84  CG2 ILE A   6      10.583  24.361  29.205  0.00  0.00    +0.002 C 
BRANCH  83  85
ATOM     85  CG1 ILE A   6      13.039  24.440  29.838  0.00  0.00    +0.002 C 
ATOM     86  CD1 ILE A   6      13.211  23.058  30.429  0.00  0.00    +0.000 C 
ENDBRANCH  83  85
ENDBRANCH  47  83
ENDBRANCH   2  47
TORSDOF 32
REMARK  Name = ../refined-set-2016/3djk/3djk_pocket.pdb
REMARK  232 active torsions:
REMARK  status: ('A' for Active; 'I' for Inactive)
REMARK    1  A    between atoms: _1  and  _3
REMARK    2  A    between atoms: _3  and  _4
REMARK    3  A    between atoms: _3  and  _6
REMARK    4  A    between atoms: _6  and  _7
REMARK    5  A    between atoms: _7  and  _8
REMARK    6  A    between atoms: _8  and  _9
REMARK    7  A    between atoms: _9  and  _11
REMARK    8  A    between atoms: _11  and  _15
REMARK    9  A    between atoms: _18  and  _20
REMARK   10  A    between atoms: _20  and  _21
REMARK   11  A    between atoms: _20  and  _23
REMARK   12  A    between atoms: _23  and  _24
REMARK   13  A    between atoms: _27  and  _29
REMARK   14  A    between atoms: _29  and  _30
REMARK   15  A    between atoms: _29  and  _32
REMARK   16  A    between atoms: _32  and  _33
REMARK   17  A    between atoms: _36  and  _38
REMARK   18  A    between atoms: _38  and  _39
REMARK   19  A    between atoms: _38  and  _41
REMARK   20  A    between atoms: _41  and  _42
REMARK   21  A    between atoms: _45  and  _47
REMARK   22  A    between atoms: _47  and  _48
REMARK   23  A    between atoms: _47  and  _50
REMARK   24  A    between atoms: _50  and  _51
REMARK   25  A    between atoms: _54  and  _56
REMARK   26  A    between atoms: _56  and  _57
REMARK   27  A    between atoms: _59  and  _61
REMARK   28  A    between atoms: _61  and  _62
REMARK   29  A    between atoms: _65  and  _67
REMARK   30  A    between atoms: _67  and  _68
REMARK   31  A    between atoms: _67  and  _70
REMARK   32  A    between atoms: _70  and  _71
REMARK   33  A    between atoms: _74  and  _76
REMARK   34  A    between atoms: _76  and  _77
REMARK   35  A    between atoms: _76  and  _79
REMARK   36  A    between atoms: _79  and  _80
REMARK   37  A    between atoms: _83  and  _85
REMARK   38  A    between atoms: _85  and  _86
REMARK   39  A    between atoms: _85  and  _88
REMARK   40  A    between atoms: _88  and  _89
REMARK   41  A    between atoms: _92  and  _94
REMARK   42  A    between atoms: _94  and  _95
REMARK   43  A    between atoms: _94  and  _97
REMARK   44  A    between atoms: _100  and  _102
REMARK   45  A    between atoms: _102  and  _103
REMARK   46  A    between atoms: _102  and  _105
REMARK   47  A    between atoms: _105  and  _106
REMARK   48  A    between atoms: _106  and  _107
REMARK   49  A    between atoms: _107  and  _108
REMARK   50  A    between atoms: _108  and  _109
REMARK   51  A    between atoms: _113  and  _115
REMARK   52  A    between atoms: _115  and  _116
REMARK   53  A    between atoms: _115  and  _118
REMARK   54  A    between atoms: _118  and  _119
REMARK   55  A    between atoms: _119  and  _120
REMARK   56  A    between atoms: _122  and  _124
REMARK   57  A    between atoms: _124  and  _125
REMARK   58  A    between atoms: _124  and  _127
REMARK   59  A    between atoms: _127  and  _128
REMARK   60  A    between atoms: _131  and  _133
REMARK   61  A    between atoms: _133  and  _134
REMARK   62  A    between atoms: _136  and  _138
REMARK   63  A    between atoms: _138  and  _139
REMARK   64  A    between atoms: _141  and  _143
REMARK   65  A    between atoms: _143  and  _144
REMARK   66  A    between atoms: _143  and  _146
REMARK   67  A    between atoms: _146  and  _147
REMARK   68  A    between atoms: _150  and  _152
REMARK   69  A    between atoms: _152  and  _153
REMARK   70  A    between atoms: _155  and  _157
REMARK   71  A    between atoms: _157  and  _158
REMARK   72  A    between atoms: _160  and  _162
REMARK   73  A    between atoms: _162  and  _163
REMARK   74  A    between atoms: _162  and  _165
REMARK   75  A    between atoms: _165  and  _166
REMARK   76  A    between atoms: _172  and  _174
REMARK   77  A    between atoms: _174  and  _175
REMARK   78  A    between atoms: _174  and  _177
REMARK   79  A    between atoms: _177  and  _178
REMARK   80  A    between atoms: _181  and  _183
REMARK   81  A    between atoms: _183  and  _184
REMARK   82  A    between atoms: _183  and  _186
REMARK   83  A    between atoms: _189  and  _191
REMARK   84  A    between atoms: _191  and  _192
REMARK   85  A    between atoms: _191  and  _194
REMARK   86  A    between atoms: _194  and  _195
REMARK   87  A    between atoms: _199  and  _200
REMARK   88  A    between atoms: _205  and  _207
REMARK   89  A    between atoms: _207  and  _208
REMARK   90  A    between atoms: _207  and  _210
REMARK   91  A    between atoms: _210  and  _211
REMARK   92  A    between atoms: _215  and  _216
REMARK   93  A    between atoms: _221  and  _223
REMARK   94  A    between atoms: _223  and  _224
REMARK   95  A    between atoms: _223  and  _226
REMARK   96  A    between atoms: _229  and  _231
REMARK   97  A    between atoms: _231  and  _232
REMARK   98  A    between atoms: _231  and  _234
REMARK   99  A    between atoms: _234  and  _235
REMARK  100  A    between atoms: _240  and  _242
REMARK  101  A    between atoms: _242  and  _243
REMARK  102  A    between atoms: _242  and  _245
REMARK  103  A    between atoms: _245  and  _246
REMARK  104  A    between atoms: _249  and  _251
REMARK  105  A    between atoms: _251  and  _252
REMARK  106  A    between atoms: _251  and  _254
REMARK  107  A    between atoms: _254  and  _255
REMARK  108  A    between atoms: _258  and  _260
REMARK  109  A    between atoms: _260  and  _261
REMARK  110  A    between atoms: _263  and  _265
REMARK  111  A    between atoms: _265  and  _266
REMARK  112  A    between atoms: _265  and  _268
REMARK  113  A    between atoms: _268  and  _269
REMARK  114  A    between atoms: _269  and  _270
REMARK  115  A    between atoms: _270  and  _271
REMARK  116  A    between atoms: _280  and  _282
REMARK  117  A    between atoms: _282  and  _283
REMARK  118  A    between atoms: _282  and  _285
REMARK  119  A    between atoms: _285  and  _286
REMARK  120  A    between atoms: _291  and  _293
REMARK  121  A    between atoms: _293  and  _294
REMARK  122  A    between atoms: _293  and  _296
REMARK  123  A    between atoms: _296  and  _297
REMARK  124  A    between atoms: _297  and  _298
REMARK  125  A    between atoms: _298  and  _299
REMARK  126  A    between atoms: _308  and  _310
REMARK  127  A    between atoms: _310  and  _311
REMARK  128  A    between atoms: _310  and  _313
REMARK  129  A    between atoms: _313  and  _314
REMARK  130  A    between atoms: _317  and  _319
REMARK  131  A    between atoms: _319  and  _320
REMARK  132  A    between atoms: _319  and  _322
REMARK  133  A    between atoms: _322  and  _323
REMARK  134  A    between atoms: _326  and  _328
REMARK  135  A    between atoms: _328  and  _329
REMARK  136  A    between atoms: _328  and  _331
REMARK  137  A    between atoms: _331  and  _332
REMARK  138  A    between atoms: _335  and  _337
REMARK  139  A    between atoms: _337  and  _338
REMARK  140  A    between atoms: _337  and  _340
REMARK  141  A    between atoms: _340  and  _341
REMARK  142  A    between atoms: _344  and  _346
REMARK  143  A    between atoms: _346  and  _347
REMARK  144  A    between atoms: _349  and  _351
REMARK  145  A    between atoms: _351  and  _352
REMARK  146  A    between atoms: _355  and  _357
REMARK  147  A    between atoms: _357  and  _358
REMARK  148  A    between atoms: _357  and  _360
REMARK  149  A    between atoms: _360  and  _361
REMARK  150  A    between atoms: _364  and  _366
REMARK  151  A    between atoms: _366  and  _367
REMARK  152  A    between atoms: _366  and  _369
REMARK  153  A    between atoms: _369  and  _370
REMARK  154  A    between atoms: _373  and  _375
REMARK  155  A    between atoms: _375  and  _376
REMARK  156  A    between atoms: _375  and  _378
REMARK  157  A    between atoms: _378  and  _379
REMARK  158  A    between atoms: _382  and  _384
REMARK  159  A    between atoms: _384  and  _385
REMARK  160  A    between atoms: _384  and  _387
REMARK  161  A    between atoms: _390  and  _392
REMARK  162  A    between atoms: _392  and  _393
REMARK  163  A    between atoms: _392  and  _395
REMARK  164  A    between atoms: _395  and  _396
REMARK  165  A    between atoms: _396  and  _397
REMARK  166  A    between atoms: _397  and  _398
REMARK  167  A    between atoms: _398  and  _399
REMARK  168  A    between atoms: _403  and  _405
REMARK  169  A    between atoms: _405  and  _406
REMARK  170  A    between atoms: _405  and  _408
REMARK  171  A    between atoms: _408  and  _409
REMARK  172  A    between atoms: _409  and  _410
REMARK  173  A    between atoms: _412  and  _414
REMARK  174  A    between atoms: _414  and  _415
REMARK  175  A    between atoms: _414  and  _417
REMARK  176  A    between atoms: _417  and  _418
REMARK  177  A    between atoms: _421  and  _423
REMARK  178  A    between atoms: _423  and  _424
REMARK  179  A    between atoms: _426  and  _428
REMARK  180  A    between atoms: _428  and  _429
REMARK  181  A    between atoms: _431  and  _433
REMARK  182  A    between atoms: _433  and  _434
REMARK  183  A    between atoms: _433  and  _436
REMARK  184  A    between atoms: _436  and  _437
REMARK  185  A    between atoms: _440  and  _442
REMARK  186  A    between atoms: _442  and  _443
REMARK  187  A    between atoms: _445  and  _447
REMARK  188  A    between atoms: _447  and  _448
REMARK  189  A    between atoms: _450  and  _452
REMARK  190  A    between atoms: _452  and  _453
REMARK  191  A    between atoms: _452  and  _455
REMARK  192  A    between atoms: _455  and  _456
REMARK  193  A    between atoms: _462  and  _464
REMARK  194  A    between atoms: _464  and  _465
REMARK  195  A    between atoms: _464  and  _467
REMARK  196  A    between atoms: _467  and  _468
REMARK  197  A    between atoms: _471  and  _473
REMARK  198  A    between atoms: _473  and  _474
REMARK  199  A    between atoms: _473  and  _476
REMARK  200  A    between atoms: _476  and  _477
REMARK  201  A    between atoms: _480  and  _482
REMARK  202  A    between atoms: _482  and  _483
REMARK  203  A    between atoms: _482  and  _485
REMARK  204  A    between atoms: _485  and  _486
REMARK  205  A    between atoms: _490  and  _491
REMARK  206  A    between atoms: _496  and  _498
REMARK  207  A    between atoms: _498  and  _499
REMARK  208  A    between atoms: _498  and  _501
REMARK  209  A    between atoms: _504  and  _506
REMARK  210  A    between atoms: _506  and  _507
REMARK  211  A    between atoms: _506  and  _509
REMARK  212  A    between atoms: _509  and  _510
REMARK  213  A    between atoms: _515  and  _517
REMARK  214  A    between atoms: _517  and  _518
REMARK  215  A    between atoms: _517  and  _520
REMARK  216  A    between atoms: _520  and  _521
REMARK  217  A    between atoms: _524  and  _526
REMARK  218  A    between atoms: _526  and  _527
REMARK  219  A    between atoms: _526  and  _529
REMARK  220  A    between atoms: _529  and  _530
REMARK  221  A    between atoms: _533  and  _535
REMARK  222  A    between atoms: _535  and  _536
REMARK  223  A    between atoms: _538  and  _540
REMARK  224  A    between atoms: _540  and  _541
REMARK  225  A    between atoms: _540  and  _543
REMARK  226  A    between atoms: _543  and  _544
REMARK  227  A    between atoms: _544  and  _545
REMARK  228  A    between atoms: _545  and  _546
REMARK  229  A    between atoms: _555  and  _557
REMARK  230  A    between atoms: _557  and  _558
REMARK  231  A    between atoms: _557  and  _560
REMARK  232  A    between atoms: _560  and  _561
REMARK                            x       y       z     vdW  Elec       q    Type
REMARK                         _______ _______ _______ _____ _____    ______ ____
ROOT
ATOM      1  O   HOH     1      17.963  20.715  16.747  0.00  0.00    +0.000 OA
ENDROOT
TORSDOF 0
REMARK  Name = ../refined-set-2016/3djk/3djk_pocket.pdb
REMARK  232 active torsions:
REMARK  status: ('A' for Active; 'I' for Inactive)
REMARK    1  A    between atoms: _1  and  _3
REMARK    2  A    between atoms: _3  and  _4
REMARK    3  A    between atoms: _3  and  _6
REMARK    4  A    between atoms: _6  and  _7
REMARK    5  A    between atoms: _7  and  _8
REMARK    6  A    between atoms: _8  and  _9
REMARK    7  A    between atoms: _9  and  _11
REMARK    8  A    between atoms: _11  and  _15
REMARK    9  A    between atoms: _18  and  _20
REMARK   10  A    between atoms: _20  and  _21
REMARK   11  A    between atoms: _20  and  _23
REMARK   12  A    between atoms: _23  and  _24
REMARK   13  A    between atoms: _27  and  _29
REMARK   14  A    between atoms: _29  and  _30
REMARK   15  A    between atoms: _29  and  _32
REMARK   16  A    between atoms: _32  and  _33
REMARK   17  A    between atoms: _36  and  _38
REMARK   18  A    between atoms: _38  and  _39
REMARK   19  A    between atoms: _38  and  _41
REMARK   20  A    between atoms: _41  and  _42
REMARK   21  A    between atoms: _45  and  _47
REMARK   22  A    between atoms: _47  and  _48
REMARK   23  A    between atoms: _47  and  _50
REMARK   24  A    between atoms: _50  and  _51
REMARK   25  A    between atoms: _54  and  _56
REMARK   26  A    between atoms: _56  and  _57
REMARK   27  A    between atoms: _59  and  _61
REMARK   28  A    between atoms: _61  and  _62
REMARK   29  A    between atoms: _65  and  _67
REMARK   30  A    between atoms: _67  and  _68
REMARK   31  A    between atoms: _67  and  _70
REMARK   32  A    between atoms: _70  and  _71
REMARK   33  A    between atoms: _74  and  _76
REMARK   34  A    between atoms: _76  and  _77
REMARK   35  A    between atoms: _76  and  _79
REMARK   36  A    between atoms: _79  and  _80
REMARK   37  A    between atoms: _83  and  _85
REMARK   38  A    between atoms: _85  and  _86
REMARK   39  A    between atoms: _85  and  _88
REMARK   40  A    between atoms: _88  and  _89
REMARK   41  A    between atoms: _92  and  _94
REMARK   42  A    between atoms: _94  and  _95
REMARK   43  A    between atoms: _94  and  _97
REMARK   44  A    between atoms: _100  and  _102
REMARK   45  A    between atoms: _102  and  _103
REMARK   46  A    between atoms: _102  and  _105
REMARK   47  A    between atoms: _105  and  _106
REMARK   48  A    between atoms: _106  and  _107
REMARK   49  A    between atoms: _107  and  _108
REMARK   50  A    between atoms: _108  and  _109
REMARK   51  A    between atoms: _113  and  _115
REMARK   52  A    between atoms: _115  and  _116
REMARK   53  A    between atoms: _115  and  _118
REMARK   54  A    between atoms: _118  and  _119
REMARK   55  A    between atoms: _119  and  _120
REMARK   56  A    between atoms: _122  and  _124
REMARK   57  A    between atoms: _124  and  _125
REMARK   58  A    between atoms: _124  and  _127
REMARK   59  A    between atoms: _127  and  _128
REMARK   60  A    between atoms: _131  and  _133
REMARK   61  A    between atoms: _133  and  _134
REMARK   62  A    between atoms: _136  and  _138
REMARK   63  A    between atoms: _138  and  _139
REMARK   64  A    between atoms: _141  and  _143
REMARK   65  A    between atoms: _143  and  _144
REMARK   66  A    between atoms: _143  and  _146
REMARK   67  A    between atoms: _146  and  _147
REMARK   68  A    between atoms: _150  and  _152
REMARK   69  A    between atoms: _152  and  _153
REMARK   70  A    between atoms: _155  and  _157
REMARK   71  A    between atoms: _157  and  _158
REMARK   72  A    between atoms: _160  and  _162
REMARK   73  A    between atoms: _162  and  _163
REMARK   74  A    between atoms: _162  and  _165
REMARK   75  A    between atoms: _165  and  _166
REMARK   76  A    between atoms: _172  and  _174
REMARK   77  A    between atoms: _174  and  _175
REMARK   78  A    between atoms: _174  and  _177
REMARK   79  A    between atoms: _177  and  _178
REMARK   80  A    between atoms: _181  and  _183
REMARK   81  A    between atoms: _183  and  _184
REMARK   82  A    between atoms: _183  and  _186
REMARK   83  A    between atoms: _189  and  _191
REMARK   84  A    between atoms: _191  and  _192
REMARK   85  A    between atoms: _191  and  _194
REMARK   86  A    between atoms: _194  and  _195
REMARK   87  A    between atoms: _199  and  _200
REMARK   88  A    between atoms: _205  and  _207
REMARK   89  A    between atoms: _207  and  _208
REMARK   90  A    between atoms: _207  and  _210
REMARK   91  A    between atoms: _210  and  _211
REMARK   92  A    between atoms: _215  and  _216
REMARK   93  A    between atoms: _221  and  _223
REMARK   94  A    between atoms: _223  and  _224
REMARK   95  A    between atoms: _223  and  _226
REMARK   96  A    between atoms: _229  and  _231
REMARK   97  A    between atoms: _231  and  _232
REMARK   98  A    between atoms: _231  and  _234
REMARK   99  A    between atoms: _234  and  _235
REMARK  100  A    between atoms: _240  and  _242
REMARK  101  A    between atoms: _242  and  _243
REMARK  102  A    between atoms: _242  and  _245
REMARK  103  A    between atoms: _245  and  _246
REMARK  104  A    between atoms: _249  and  _251
REMARK  105  A    between atoms: _251  and  _252
REMARK  106  A    between atoms: _251  and  _254
REMARK  107  A    between atoms: _254  and  _255
REMARK  108  A    between atoms: _258  and  _260
REMARK  109  A    between atoms: _260  and  _261
REMARK  110  A    between atoms: _263  and  _265
REMARK  111  A    between atoms: _265  and  _266
REMARK  112  A    between atoms: _265  and  _268
REMARK  113  A    between atoms: _268  and  _269
REMARK  114  A    between atoms: _269  and  _270
REMARK  115  A    between atoms: _270  and  _271
REMARK  116  A    between atoms: _280  and  _282
REMARK  117  A    between atoms: _282  and  _283
REMARK  118  A    between atoms: _282  and  _285
REMARK  119  A    between atoms: _285  and  _286
REMARK  120  A    between atoms: _291  and  _293
REMARK  121  A    between atoms: _293  and  _294
REMARK  122  A    between atoms: _293  and  _296
REMARK  123  A    between atoms: _296  and  _297
REMARK  124  A    between atoms: _297  and  _298
REMARK  125  A    between atoms: _298  and  _299
REMARK  126  A    between atoms: _308  and  _310
REMARK  127  A    between atoms: _310  and  _311
REMARK  128  A    between atoms: _310  and  _313
REMARK  129  A    between atoms: _313  and  _314
REMARK  130  A    between atoms: _317  and  _319
REMARK  131  A    between atoms: _319  and  _320
REMARK  132  A    between atoms: _319  and  _322
REMARK  133  A    between atoms: _322  and  _323
REMARK  134  A    between atoms: _326  and  _328
REMARK  135  A    between atoms: _328  and  _329
REMARK  136  A    between atoms: _328  and  _331
REMARK  137  A    between atoms: _331  and  _332
REMARK  138  A    between atoms: _335  and  _337
REMARK  139  A    between atoms: _337  and  _338
REMARK  140  A    between atoms: _337  and  _340
REMARK  141  A    between atoms: _340  and  _341
REMARK  142  A    between atoms: _344  and  _346
REMARK  143  A    between atoms: _346  and  _347
REMARK  144  A    between atoms: _349  and  _351
REMARK  145  A    between atoms: _351  and  _352
REMARK  146  A    between atoms: _355  and  _357
REMARK  147  A    between atoms: _357  and  _358
REMARK  148  A    between atoms: _357  and  _360
REMARK  149  A    between atoms: _360  and  _361
REMARK  150  A    between atoms: _364  and  _366
REMARK  151  A    between atoms: _366  and  _367
REMARK  152  A    between atoms: _366  and  _369
REMARK  153  A    between atoms: _369  and  _370
REMARK  154  A    between atoms: _373  and  _375
REMARK  155  A    between atoms: _375  and  _376
REMARK  156  A    between atoms: _375  and  _378
REMARK  157  A    between atoms: _378  and  _379
REMARK  158  A    between atoms: _382  and  _384
REMARK  159  A    between atoms: _384  and  _385
REMARK  160  A    between atoms: _384  and  _387
REMARK  161  A    between atoms: _390  and  _392
REMARK  162  A    between atoms: _392  and  _393
REMARK  163  A    between atoms: _392  and  _395
REMARK  164  A    between atoms: _395  and  _396
REMARK  165  A    between atoms: _396  and  _397
REMARK  166  A    between atoms: _397  and  _398
REMARK  167  A    between atoms: _398  and  _399
REMARK  168  A    between atoms: _403  and  _405
REMARK  169  A    between atoms: _405  and  _406
REMARK  170  A    between atoms: _405  and  _408
REMARK  171  A    between atoms: _408  and  _409
REMARK  172  A    between atoms: _409  and  _410
REMARK  173  A    between atoms: _412  and  _414
REMARK  174  A    between atoms: _414  and  _415
REMARK  175  A    between atoms: _414  and  _417
REMARK  176  A    between atoms: _417  and  _418
REMARK  177  A    between atoms: _421  and  _423
REMARK  178  A    between atoms: _423  and  _424
REMARK  179  A    between atoms: _426  and  _428
REMARK  180  A    between atoms: _428  and  _429
REMARK  181  A    between atoms: _431  and  _433
REMARK  182  A    between atoms: _433  and  _434
REMARK  183  A    between atoms: _433  and  _436
REMARK  184  A    between atoms: _436  and  _437
REMARK  185  A    between atoms: _440  and  _442
REMARK  186  A    between atoms: _442  and  _443
REMARK  187  A    between atoms: _445  and  _447
REMARK  188  A    between atoms: _447  and  _448
REMARK  189  A    between atoms: _450  and  _452
REMARK  190  A    between atoms: _452  and  _453
REMARK  191  A    between atoms: _452  and  _455
REMARK  192  A    between atoms: _455  and  _456
REMARK  193  A    between atoms: _462  and  _464
REMARK  194  A    between atoms: _464  and  _465
REMARK  195  A    between atoms: _464  and  _467
REMARK  196  A    between atoms: _467  and  _468
REMARK  197  A    between atoms: _471  and  _473
REMARK  198  A    between atoms: _473  and  _474
REMARK  199  A    between atoms: _473  and  _476
REMARK  200  A    between atoms: _476  and  _477
REMARK  201  A    between atoms: _480  and  _482
REMARK  202  A    between atoms: _482  and  _483
REMARK  203  A    between atoms: _482  and  _485
REMARK  204  A    between atoms: _485  and  _486
REMARK  205  A    between atoms: _490  and  _491
REMARK  206  A    between atoms: _496  and  _498
REMARK  207  A    between atoms: _498  and  _499
REMARK  208  A    between atoms: _498  and  _501
REMARK  209  A    between atoms: _504  and  _506
REMARK  210  A    between atoms: _506  and  _507
REMARK  211  A    between atoms: _506  and  _509
REMARK  212  A    between atoms: _509  and  _510
REMARK  213  A    between atoms: _515  and  _517
REMARK  214  A    between atoms: _517  and  _518
REMARK  215  A    between atoms: _517  and  _520
REMARK  216  A    between atoms: _520  and  _521
REMARK  217  A    between atoms: _524  and  _526
REMARK  218  A    between atoms: _526  and  _527
REMARK  219  A    between atoms: _526  and  _529
REMARK  220  A    between atoms: _529  and  _530
REMARK  221  A    between atoms: _533  and  _535
REMARK  222  A    between atoms: _535  and  _536
REMARK  223  A    between atoms: _538  and  _540
REMARK  224  A    between atoms: _540  and  _541
REMARK  225  A    between atoms: _540  and  _543
REMARK  226  A    between atoms: _543  and  _544
REMARK  227  A    between atoms: _544  and  _545
REMARK  228  A    between atoms: _545  and  _546
REMARK  229  A    between atoms: _555  and  _557
REMARK  230  A    between atoms: _557  and  _558
REMARK  231  A    between atoms: _557  and  _560
REMARK  232  A    between atoms: _560  and  _561
REMARK                            x       y       z     vdW  Elec       q    Type
REMARK                         _______ _______ _______ _____ _____    ______ ____
ROOT
ATOM      1  O   HOH     1      20.532  33.955  10.759  0.00  0.00    +0.000 OA
ENDROOT
TORSDOF 0
REMARK  Name = ../refined-set-2016/3djk/3djk_pocket.pdb
REMARK  232 active torsions:
REMARK  status: ('A' for Active; 'I' for Inactive)
REMARK    1  A    between atoms: _1  and  _3
REMARK    2  A    between atoms: _3  and  _4
REMARK    3  A    between atoms: _3  and  _6
REMARK    4  A    between atoms: _6  and  _7
REMARK    5  A    between atoms: _7  and  _8
REMARK    6  A    between atoms: _8  and  _9
REMARK    7  A    between atoms: _9  and  _11
REMARK    8  A    between atoms: _11  and  _15
REMARK    9  A    between atoms: _18  and  _20
REMARK   10  A    between atoms: _20  and  _21
REMARK   11  A    between atoms: _20  and  _23
REMARK   12  A    between atoms: _23  and  _24
REMARK   13  A    between atoms: _27  and  _29
REMARK   14  A    between atoms: _29  and  _30
REMARK   15  A    between atoms: _29  and  _32
REMARK   16  A    between atoms: _32  and  _33
REMARK   17  A    between atoms: _36  and  _38
REMARK   18  A    between atoms: _38  and  _39
REMARK   19  A    between atoms: _38  and  _41
REMARK   20  A    between atoms: _41  and  _42
REMARK   21  A    between atoms: _45  and  _47
REMARK   22  A    between atoms: _47  and  _48
REMARK   23  A    between atoms: _47  and  _50
REMARK   24  A    between atoms: _50  and  _51
REMARK   25  A    between atoms: _54  and  _56
REMARK   26  A    between atoms: _56  and  _57
REMARK   27  A    between atoms: _59  and  _61
REMARK   28  A    between atoms: _61  and  _62
REMARK   29  A    between atoms: _65  and  _67
REMARK   30  A    between atoms: _67  and  _68
REMARK   31  A    between atoms: _67  and  _70
REMARK   32  A    between atoms: _70  and  _71
REMARK   33  A    between atoms: _74  and  _76
REMARK   34  A    between atoms: _76  and  _77
REMARK   35  A    between atoms: _76  and  _79
REMARK   36  A    between atoms: _79  and  _80
REMARK   37  A    between atoms: _83  and  _85
REMARK   38  A    between atoms: _85  and  _86
REMARK   39  A    between atoms: _85  and  _88
REMARK   40  A    between atoms: _88  and  _89
REMARK   41  A    between atoms: _92  and  _94
REMARK   42  A    between atoms: _94  and  _95
REMARK   43  A    between atoms: _94  and  _97
REMARK   44  A    between atoms: _100  and  _102
REMARK   45  A    between atoms: _102  and  _103
REMARK   46  A    between atoms: _102  and  _105
REMARK   47  A    between atoms: _105  and  _106
REMARK   48  A    between atoms: _106  and  _107
REMARK   49  A    between atoms: _107  and  _108
REMARK   50  A    between atoms: _108  and  _109
REMARK   51  A    between atoms: _113  and  _115
REMARK   52  A    between atoms: _115  and  _116
REMARK   53  A    between atoms: _115  and  _118
REMARK   54  A    between atoms: _118  and  _119
REMARK   55  A    between atoms: _119  and  _120
REMARK   56  A    between atoms: _122  and  _124
REMARK   57  A    between atoms: _124  and  _125
REMARK   58  A    between atoms: _124  and  _127
REMARK   59  A    between atoms: _127  and  _128
REMARK   60  A    between atoms: _131  and  _133
REMARK   61  A    between atoms: _133  and  _134
REMARK   62  A    between atoms: _136  and  _138
REMARK   63  A    between atoms: _138  and  _139
REMARK   64  A    between atoms: _141  and  _143
REMARK   65  A    between atoms: _143  and  _144
REMARK   66  A    between atoms: _143  and  _146
REMARK   67  A    between atoms: _146  and  _147
REMARK   68  A    between atoms: _150  and  _152
REMARK   69  A    between atoms: _152  and  _153
REMARK   70  A    between atoms: _155  and  _157
REMARK   71  A    between atoms: _157  and  _158
REMARK   72  A    between atoms: _160  and  _162
REMARK   73  A    between atoms: _162  and  _163
REMARK   74  A    between atoms: _162  and  _165
REMARK   75  A    between atoms: _165  and  _166
REMARK   76  A    between atoms: _172  and  _174
REMARK   77  A    between atoms: _174  and  _175
REMARK   78  A    between atoms: _174  and  _177
REMARK   79  A    between atoms: _177  and  _178
REMARK   80  A    between atoms: _181  and  _183
REMARK   81  A    between atoms: _183  and  _184
REMARK   82  A    between atoms: _183  and  _186
REMARK   83  A    between atoms: _189  and  _191
REMARK   84  A    between atoms: _191  and  _192
REMARK   85  A    between atoms: _191  and  _194
REMARK   86  A    between atoms: _194  and  _195
REMARK   87  A    between atoms: _199  and  _200
REMARK   88  A    between atoms: _205  and  _207
REMARK   89  A    between atoms: _207  and  _208
REMARK   90  A    between atoms: _207  and  _210
REMARK   91  A    between atoms: _210  and  _211
REMARK   92  A    between atoms: _215  and  _216
REMARK   93  A    between atoms: _221  and  _223
REMARK   94  A    between atoms: _223  and  _224
REMARK   95  A    between atoms: _223  and  _226
REMARK   96  A    between atoms: _229  and  _231
REMARK   97  A    between atoms: _231  and  _232
REMARK   98  A    between atoms: _231  and  _234
REMARK   99  A    between atoms: _234  and  _235
REMARK  100  A    between atoms: _240  and  _242
REMARK  101  A    between atoms: _242  and  _243
REMARK  102  A    between atoms: _242  and  _245
REMARK  103  A    between atoms: _245  and  _246
REMARK  104  A    between atoms: _249  and  _251
REMARK  105  A    between atoms: _251  and  _252
REMARK  106  A    between atoms: _251  and  _254
REMARK  107  A    between atoms: _254  and  _255
REMARK  108  A    between atoms: _258  and  _260
REMARK  109  A    between atoms: _260  and  _261
REMARK  110  A    between atoms: _263  and  _265
REMARK  111  A    between atoms: _265  and  _266
REMARK  112  A    between atoms: _265  and  _268
REMARK  113  A    between atoms: _268  and  _269
REMARK  114  A    between atoms: _269  and  _270
REMARK  115  A    between atoms: _270  and  _271
REMARK  116  A    between atoms: _280  and  _282
REMARK  117  A    between atoms: _282  and  _283
REMARK  118  A    between atoms: _282  and  _285
REMARK  119  A    between atoms: _285  and  _286
REMARK  120  A    between atoms: _291  and  _293
REMARK  121  A    between atoms: _293  and  _294
REMARK  122  A    between atoms: _293  and  _296
REMARK  123  A    between atoms: _296  and  _297
REMARK  124  A    between atoms: _297  and  _298
REMARK  125  A    between atoms: _298  and  _299
REMARK  126  A    between atoms: _308  and  _310
REMARK  127  A    between atoms: _310  and  _311
REMARK  128  A    between atoms: _310  and  _313
REMARK  129  A    between atoms: _313  and  _314
REMARK  130  A    between atoms: _317  and  _319
REMARK  131  A    between atoms: _319  and  _320
REMARK  132  A    between atoms: _319  and  _322
REMARK  133  A    between atoms: _322  and  _323
REMARK  134  A    between atoms: _326  and  _328
REMARK  135  A    between atoms: _328  and  _329
REMARK  136  A    between atoms: _328  and  _331
REMARK  137  A    between atoms: _331  and  _332
REMARK  138  A    between atoms: _335  and  _337
REMARK  139  A    between atoms: _337  and  _338
REMARK  140  A    between atoms: _337  and  _340
REMARK  141  A    between atoms: _340  and  _341
REMARK  142  A    between atoms: _344  and  _346
REMARK  143  A    between atoms: _346  and  _347
REMARK  144  A    between atoms: _349  and  _351
REMARK  145  A    between atoms: _351  and  _352
REMARK  146  A    between atoms: _355  and  _357
REMARK  147  A    between atoms: _357  and  _358
REMARK  148  A    between atoms: _357  and  _360
REMARK  149  A    between atoms: _360  and  _361
REMARK  150  A    between atoms: _364  and  _366
REMARK  151  A    between atoms: _366  and  _367
REMARK  152  A    between atoms: _366  and  _369
REMARK  153  A    between atoms: _369  and  _370
REMARK  154  A    between atoms: _373  and  _375
REMARK  155  A    between atoms: _375  and  _376
REMARK  156  A    between atoms: _375  and  _378
REMARK  157  A    between atoms: _378  and  _379
REMARK  158  A    between atoms: _382  and  _384
REMARK  159  A    between atoms: _384  and  _385
REMARK  160  A    between atoms: _384  and  _387
REMARK  161  A    between atoms: _390  and  _392
REMARK  162  A    between atoms: _392  and  _393
REMARK  163  A    between atoms: _392  and  _395
REMARK  164  A    between atoms: _395  and  _396
REMARK  165  A    between atoms: _396  and  _397
REMARK  166  A    between atoms: _397  and  _398
REMARK  167  A    between atoms: _398  and  _399
REMARK  168  A    between atoms: _403  and  _405
REMARK  169  A    between atoms: _405  and  _406
REMARK  170  A    between atoms: _405  and  _408
REMARK  171  A    between atoms: _408  and  _409
REMARK  172  A    between atoms: _409  and  _410
REMARK  173  A    between atoms: _412  and  _414
REMARK  174  A    between atoms: _414  and  _415
REMARK  175  A    between atoms: _414  and  _417
REMARK  176  A    between atoms: _417  and  _418
REMARK  177  A    between atoms: _421  and  _423
REMARK  178  A    between atoms: _423  and  _424
REMARK  179  A    between atoms: _426  and  _428
REMARK  180  A    between atoms: _428  and  _429
REMARK  181  A    between atoms: _431  and  _433
REMARK  182  A    between atoms: _433  and  _434
REMARK  183  A    between atoms: _433  and  _436
REMARK  184  A    between atoms: _436  and  _437
REMARK  185  A    between atoms: _440  and  _442
REMARK  186  A    between atoms: _442  and  _443
REMARK  187  A    between atoms: _445  and  _447
REMARK  188  A    between atoms: _447  and  _448
REMARK  189  A    between atoms: _450  and  _452
REMARK  190  A    between atoms: _452  and  _453
REMARK  191  A    between atoms: _452  and  _455
REMARK  192  A    between atoms: _455  and  _456
REMARK  193  A    between atoms: _462  and  _464
REMARK  194  A    between atoms: _464  and  _465
REMARK  195  A    between atoms: _464  and  _467
REMARK  196  A    between atoms: _467  and  _468
REMARK  197  A    between atoms: _471  and  _473
REMARK  198  A    between atoms: _473  and  _474
REMARK  199  A    between atoms: _473  and  _476
REMARK  200  A    between atoms: _476  and  _477
REMARK  201  A    between atoms: _480  and  _482
REMARK  202  A    between atoms: _482  and  _483
REMARK  203  A    between atoms: _482  and  _485
REMARK  204  A    between atoms: _485  and  _486
REMARK  205  A    between atoms: _490  and  _491
REMARK  206  A    between atoms: _496  and  _498
REMARK  207  A    between atoms: _498  and  _499
REMARK  208  A    between atoms: _498  and  _501
REMARK  209  A    between atoms: _504  and  _506
REMARK  210  A    between atoms: _506  and  _507
REMARK  211  A    between atoms: _506  and  _509
REMARK  212  A    between atoms: _509  and  _510
REMARK  213  A    between atoms: _515  and  _517
REMARK  214  A    between atoms: _517  and  _518
REMARK  215  A    between atoms: _517  and  _520
REMARK  216  A    between atoms: _520  and  _521
REMARK  217  A    between atoms: _524  and  _526
REMARK  218  A    between atoms: _526  and  _527
REMARK  219  A    between atoms: _526  and  _529
REMARK  220  A    between atoms: _529  and  _530
REMARK  221  A    between atoms: _533  and  _535
REMARK  222  A    between atoms: _535  and  _536
REMARK  223  A    between atoms: _538  and  _540
REMARK  224  A    between atoms: _540  and  _541
REMARK  225  A    between atoms: _540  and  _543
REMARK  226  A    between atoms: _543  and  _544
REMARK  227  A    between atoms: _544  and  _545
REMARK  228  A    between atoms: _545  and  _546
REMARK  229  A    between atoms: _555  and  _557
REMARK  230  A    between atoms: _557  and  _558
REMARK  231  A    between atoms: _557  and  _560
REMARK  232  A    between atoms: _560  and  _561
REMARK                            x       y       z     vdW  Elec       q    Type
REMARK                         _______ _______ _______ _____ _____    ______ ____
ROOT
ATOM      1  O   HOH     1      18.222  31.075  21.621  0.00  0.00    +0.000 OA
ENDROOT
TORSDOF 0
REMARK  Name = ../refined-set-2016/3djk/3djk_pocket.pdb
REMARK  232 active torsions:
REMARK  status: ('A' for Active; 'I' for Inactive)
REMARK    1  A    between atoms: _1  and  _3
REMARK    2  A    between atoms: _3  and  _4
REMARK    3  A    between atoms: _3  and  _6
REMARK    4  A    between atoms: _6  and  _7
REMARK    5  A    between atoms: _7  and  _8
REMARK    6  A    between atoms: _8  and  _9
REMARK    7  A    between atoms: _9  and  _11
REMARK    8  A    between atoms: _11  and  _15
REMARK    9  A    between atoms: _18  and  _20
REMARK   10  A    between atoms: _20  and  _21
REMARK   11  A    between atoms: _20  and  _23
REMARK   12  A    between atoms: _23  and  _24
REMARK   13  A    between atoms: _27  and  _29
REMARK   14  A    between atoms: _29  and  _30
REMARK   15  A    between atoms: _29  and  _32
REMARK   16  A    between atoms: _32  and  _33
REMARK   17  A    between atoms: _36  and  _38
REMARK   18  A    between atoms: _38  and  _39
REMARK   19  A    between atoms: _38  and  _41
REMARK   20  A    between atoms: _41  and  _42
REMARK   21  A    between atoms: _45  and  _47
REMARK   22  A    between atoms: _47  and  _48
REMARK   23  A    between atoms: _47  and  _50
REMARK   24  A    between atoms: _50  and  _51
REMARK   25  A    between atoms: _54  and  _56
REMARK   26  A    between atoms: _56  and  _57
REMARK   27  A    between atoms: _59  and  _61
REMARK   28  A    between atoms: _61  and  _62
REMARK   29  A    between atoms: _65  and  _67
REMARK   30  A    between atoms: _67  and  _68
REMARK   31  A    between atoms: _67  and  _70
REMARK   32  A    between atoms: _70  and  _71
REMARK   33  A    between atoms: _74  and  _76
REMARK   34  A    between atoms: _76  and  _77
REMARK   35  A    between atoms: _76  and  _79
REMARK   36  A    between atoms: _79  and  _80
REMARK   37  A    between atoms: _83  and  _85
REMARK   38  A    between atoms: _85  and  _86
REMARK   39  A    between atoms: _85  and  _88
REMARK   40  A    between atoms: _88  and  _89
REMARK   41  A    between atoms: _92  and  _94
REMARK   42  A    between atoms: _94  and  _95
REMARK   43  A    between atoms: _94  and  _97
REMARK   44  A    between atoms: _100  and  _102
REMARK   45  A    between atoms: _102  and  _103
REMARK   46  A    between atoms: _102  and  _105
REMARK   47  A    between atoms: _105  and  _106
REMARK   48  A    between atoms: _106  and  _107
REMARK   49  A    between atoms: _107  and  _108
REMARK   50  A    between atoms: _108  and  _109
REMARK   51  A    between atoms: _113  and  _115
REMARK   52  A    between atoms: _115  and  _116
REMARK   53  A    between atoms: _115  and  _118
REMARK   54  A    between atoms: _118  and  _119
REMARK   55  A    between atoms: _119  and  _120
REMARK   56  A    between atoms: _122  and  _124
REMARK   57  A    between atoms: _124  and  _125
REMARK   58  A    between atoms: _124  and  _127
REMARK   59  A    between atoms: _127  and  _128
REMARK   60  A    between atoms: _131  and  _133
REMARK   61  A    between atoms: _133  and  _134
REMARK   62  A    between atoms: _136  and  _138
REMARK   63  A    between atoms: _138  and  _139
REMARK   64  A    between atoms: _141  and  _143
REMARK   65  A    between atoms: _143  and  _144
REMARK   66  A    between atoms: _143  and  _146
REMARK   67  A    between atoms: _146  and  _147
REMARK   68  A    between atoms: _150  and  _152
REMARK   69  A    between atoms: _152  and  _153
REMARK   70  A    between atoms: _155  and  _157
REMARK   71  A    between atoms: _157  and  _158
REMARK   72  A    between atoms: _160  and  _162
REMARK   73  A    between atoms: _162  and  _163
REMARK   74  A    between atoms: _162  and  _165
REMARK   75  A    between atoms: _165  and  _166
REMARK   76  A    between atoms: _172  and  _174
REMARK   77  A    between atoms: _174  and  _175
REMARK   78  A    between atoms: _174  and  _177
REMARK   79  A    between atoms: _177  and  _178
REMARK   80  A    between atoms: _181  and  _183
REMARK   81  A    between atoms: _183  and  _184
REMARK   82  A    between atoms: _183  and  _186
REMARK   83  A    between atoms: _189  and  _191
REMARK   84  A    between atoms: _191  and  _192
REMARK   85  A    between atoms: _191  and  _194
REMARK   86  A    between atoms: _194  and  _195
REMARK   87  A    between atoms: _199  and  _200
REMARK   88  A    between atoms: _205  and  _207
REMARK   89  A    between atoms: _207  and  _208
REMARK   90  A    between atoms: _207  and  _210
REMARK   91  A    between atoms: _210  and  _211
REMARK   92  A    between atoms: _215  and  _216
REMARK   93  A    between atoms: _221  and  _223
REMARK   94  A    between atoms: _223  and  _224
REMARK   95  A    between atoms: _223  and  _226
REMARK   96  A    between atoms: _229  and  _231
REMARK   97  A    between atoms: _231  and  _232
REMARK   98  A    between atoms: _231  and  _234
REMARK   99  A    between atoms: _234  and  _235
REMARK  100  A    between atoms: _240  and  _242
REMARK  101  A    between atoms: _242  and  _243
REMARK  102  A    between atoms: _242  and  _245
REMARK  103  A    between atoms: _245  and  _246
REMARK  104  A    between atoms: _249  and  _251
REMARK  105  A    between atoms: _251  and  _252
REMARK  106  A    between atoms: _251  and  _254
REMARK  107  A    between atoms: _254  and  _255
REMARK  108  A    between atoms: _258  and  _260
REMARK  109  A    between atoms: _260  and  _261
REMARK  110  A    between atoms: _263  and  _265
REMARK  111  A    between atoms: _265  and  _266
REMARK  112  A    between atoms: _265  and  _268
REMARK  113  A    between atoms: _268  and  _269
REMARK  114  A    between atoms: _269  and  _270
REMARK  115  A    between atoms: _270  and  _271
REMARK  116  A    between atoms: _280  and  _282
REMARK  117  A    between atoms: _282  and  _283
REMARK  118  A    between atoms: _282  and  _285
REMARK  119  A    between atoms: _285  and  _286
REMARK  120  A    between atoms: _291  and  _293
REMARK  121  A    between atoms: _293  and  _294
REMARK  122  A    between atoms: _293  and  _296
REMARK  123  A    between atoms: _296  and  _297
REMARK  124  A    between atoms: _297  and  _298
REMARK  125  A    between atoms: _298  and  _299
REMARK  126  A    between atoms: _308  and  _310
REMARK  127  A    between atoms: _310  and  _311
REMARK  128  A    between atoms: _310  and  _313
REMARK  129  A    between atoms: _313  and  _314
REMARK  130  A    between atoms: _317  and  _319
REMARK  131  A    between atoms: _319  and  _320
REMARK  132  A    between atoms: _319  and  _322
REMARK  133  A    between atoms: _322  and  _323
REMARK  134  A    between atoms: _326  and  _328
REMARK  135  A    between atoms: _328  and  _329
REMARK  136  A    between atoms: _328  and  _331
REMARK  137  A    between atoms: _331  and  _332
REMARK  138  A    between atoms: _335  and  _337
REMARK  139  A    between atoms: _337  and  _338
REMARK  140  A    between atoms: _337  and  _340
REMARK  141  A    between atoms: _340  and  _341
REMARK  142  A    between atoms: _344  and  _346
REMARK  143  A    between atoms: _346  and  _347
REMARK  144  A    between atoms: _349  and  _351
REMARK  145  A    between atoms: _351  and  _352
REMARK  146  A    between atoms: _355  and  _357
REMARK  147  A    between atoms: _357  and  _358
REMARK  148  A    between atoms: _357  and  _360
REMARK  149  A    between atoms: _360  and  _361
REMARK  150  A    between atoms: _364  and  _366
REMARK  151  A    between atoms: _366  and  _367
REMARK  152  A    between atoms: _366  and  _369
REMARK  153  A    between atoms: _369  and  _370
REMARK  154  A    between atoms: _373  and  _375
REMARK  155  A    between atoms: _375  and  _376
REMARK  156  A    between atoms: _375  and  _378
REMARK  157  A    between atoms: _378  and  _379
REMARK  158  A    between atoms: _382  and  _384
REMARK  159  A    between atoms: _384  and  _385
REMARK  160  A    between atoms: _384  and  _387
REMARK  161  A    between atoms: _390  and  _392
REMARK  162  A    between atoms: _392  and  _393
REMARK  163  A    between atoms: _392  and  _395
REMARK  164  A    between atoms: _395  and  _396
REMARK  165  A    between atoms: _396  and  _397
REMARK  166  A    between atoms: _397  and  _398
REMARK  167  A    between atoms: _398  and  _399
REMARK  168  A    between atoms: _403  and  _405
REMARK  169  A    between atoms: _405  and  _406
REMARK  170  A    between atoms: _405  and  _408
REMARK  171  A    between atoms: _408  and  _409
REMARK  172  A    between atoms: _409  and  _410
REMARK  173  A    between atoms: _412  and  _414
REMARK  174  A    between atoms: _414  and  _415
REMARK  175  A    between atoms: _414  and  _417
REMARK  176  A    between atoms: _417  and  _418
REMARK  177  A    between atoms: _421  and  _423
REMARK  178  A    between atoms: _423  and  _424
REMARK  179  A    between atoms: _426  and  _428
REMARK  180  A    between atoms: _428  and  _429
REMARK  181  A    between atoms: _431  and  _433
REMARK  182  A    between atoms: _433  and  _434
REMARK  183  A    between atoms: _433  and  _436
REMARK  184  A    between atoms: _436  and  _437
REMARK  185  A    between atoms: _440  and  _442
REMARK  186  A    between atoms: _442  and  _443
REMARK  187  A    between atoms: _445  and  _447
REMARK  188  A    between atoms: _447  and  _448
REMARK  189  A    between atoms: _450  and  _452
REMARK  190  A    between atoms: _452  and  _453
REMARK  191  A    between atoms: _452  and  _455
REMARK  192  A    between atoms: _455  and  _456
REMARK  193  A    between atoms: _462  and  _464
REMARK  194  A    between atoms: _464  and  _465
REMARK  195  A    between atoms: _464  and  _467
REMARK  196  A    between atoms: _467  and  _468
REMARK  197  A    between atoms: _471  and  _473
REMARK  198  A    between atoms: _473  and  _474
REMARK  199  A    between atoms: _473  and  _476
REMARK  200  A    between atoms: _476  and  _477
REMARK  201  A    between atoms: _480  and  _482
REMARK  202  A    between atoms: _482  and  _483
REMARK  203  A    between atoms: _482  and  _485
REMARK  204  A    between atoms: _485  and  _486
REMARK  205  A    between atoms: _490  and  _491
REMARK  206  A    between atoms: _496  and  _498
REMARK  207  A    between atoms: _498  and  _499
REMARK  208  A    between atoms: _498  and  _501
REMARK  209  A    between atoms: _504  and  _506
REMARK  210  A    between atoms: _506  and  _507
REMARK  211  A    between atoms: _506  and  _509
REMARK  212  A    between atoms: _509  and  _510
REMARK  213  A    between atoms: _515  and  _517
REMARK  214  A    between atoms: _517  and  _518
REMARK  215  A    between atoms: _517  and  _520
REMARK  216  A    between atoms: _520  and  _521
REMARK  217  A    between atoms: _524  and  _526
REMARK  218  A    between atoms: _526  and  _527
REMARK  219  A    between atoms: _526  and  _529
REMARK  220  A    between atoms: _529  and  _530
REMARK  221  A    between atoms: _533  and  _535
REMARK  222  A    between atoms: _535  and  _536
REMARK  223  A    between atoms: _538  and  _540
REMARK  224  A    between atoms: _540  and  _541
REMARK  225  A    between atoms: _540  and  _543
REMARK  226  A    between atoms: _543  and  _544
REMARK  227  A    between atoms: _544  and  _545
REMARK  228  A    between atoms: _545  and  _546
REMARK  229  A    between atoms: _555  and  _557
REMARK  230  A    between atoms: _557  and  _558
REMARK  231  A    between atoms: _557  and  _560
REMARK  232  A    between atoms: _560  and  _561
REMARK                            x       y       z     vdW  Elec       q    Type
REMARK                         _______ _______ _______ _____ _____    ______ ____
ROOT
ATOM      1  O   HOH     1      25.496  26.365  15.978  0.00  0.00    +0.000 OA
ENDROOT
TORSDOF 0
REMARK  Name = ../refined-set-2016/3djk/3djk_pocket.pdb
REMARK  232 active torsions:
REMARK  status: ('A' for Active; 'I' for Inactive)
REMARK    1  A    between atoms: _1  and  _3
REMARK    2  A    between atoms: _3  and  _4
REMARK    3  A    between atoms: _3  and  _6
REMARK    4  A    between atoms: _6  and  _7
REMARK    5  A    between atoms: _7  and  _8
REMARK    6  A    between atoms: _8  and  _9
REMARK    7  A    between atoms: _9  and  _11
REMARK    8  A    between atoms: _11  and  _15
REMARK    9  A    between atoms: _18  and  _20
REMARK   10  A    between atoms: _20  and  _21
REMARK   11  A    between atoms: _20  and  _23
REMARK   12  A    between atoms: _23  and  _24
REMARK   13  A    between atoms: _27  and  _29
REMARK   14  A    between atoms: _29  and  _30
REMARK   15  A    between atoms: _29  and  _32
REMARK   16  A    between atoms: _32  and  _33
REMARK   17  A    between atoms: _36  and  _38
REMARK   18  A    between atoms: _38  and  _39
REMARK   19  A    between atoms: _38  and  _41
REMARK   20  A    between atoms: _41  and  _42
REMARK   21  A    between atoms: _45  and  _47
REMARK   22  A    between atoms: _47  and  _48
REMARK   23  A    between atoms: _47  and  _50
REMARK   24  A    between atoms: _50  and  _51
REMARK   25  A    between atoms: _54  and  _56
REMARK   26  A    between atoms: _56  and  _57
REMARK   27  A    between atoms: _59  and  _61
REMARK   28  A    between atoms: _61  and  _62
REMARK   29  A    between atoms: _65  and  _67
REMARK   30  A    between atoms: _67  and  _68
REMARK   31  A    between atoms: _67  and  _70
REMARK   32  A    between atoms: _70  and  _71
REMARK   33  A    between atoms: _74  and  _76
REMARK   34  A    between atoms: _76  and  _77
REMARK   35  A    between atoms: _76  and  _79
REMARK   36  A    between atoms: _79  and  _80
REMARK   37  A    between atoms: _83  and  _85
REMARK   38  A    between atoms: _85  and  _86
REMARK   39  A    between atoms: _85  and  _88
REMARK   40  A    between atoms: _88  and  _89
REMARK   41  A    between atoms: _92  and  _94
REMARK   42  A    between atoms: _94  and  _95
REMARK   43  A    between atoms: _94  and  _97
REMARK   44  A    between atoms: _100  and  _102
REMARK   45  A    between atoms: _102  and  _103
REMARK   46  A    between atoms: _102  and  _105
REMARK   47  A    between atoms: _105  and  _106
REMARK   48  A    between atoms: _106  and  _107
REMARK   49  A    between atoms: _107  and  _108
REMARK   50  A    between atoms: _108  and  _109
REMARK   51  A    between atoms: _113  and  _115
REMARK   52  A    between atoms: _115  and  _116
REMARK   53  A    between atoms: _115  and  _118
REMARK   54  A    between atoms: _118  and  _119
REMARK   55  A    between atoms: _119  and  _120
REMARK   56  A    between atoms: _122  and  _124
REMARK   57  A    between atoms: _124  and  _125
REMARK   58  A    between atoms: _124  and  _127
REMARK   59  A    between atoms: _127  and  _128
REMARK   60  A    between atoms: _131  and  _133
REMARK   61  A    between atoms: _133  and  _134
REMARK   62  A    between atoms: _136  and  _138
REMARK   63  A    between atoms: _138  and  _139
REMARK   64  A    between atoms: _141  and  _143
REMARK   65  A    between atoms: _143  and  _144
REMARK   66  A    between atoms: _143  and  _146
REMARK   67  A    between atoms: _146  and  _147
REMARK   68  A    between atoms: _150  and  _152
REMARK   69  A    between atoms: _152  and  _153
REMARK   70  A    between atoms: _155  and  _157
REMARK   71  A    between atoms: _157  and  _158
REMARK   72  A    between atoms: _160  and  _162
REMARK   73  A    between atoms: _162  and  _163
REMARK   74  A    between atoms: _162  and  _165
REMARK   75  A    between atoms: _165  and  _166
REMARK   76  A    between atoms: _172  and  _174
REMARK   77  A    between atoms: _174  and  _175
REMARK   78  A    between atoms: _174  and  _177
REMARK   79  A    between atoms: _177  and  _178
REMARK   80  A    between atoms: _181  and  _183
REMARK   81  A    between atoms: _183  and  _184
REMARK   82  A    between atoms: _183  and  _186
REMARK   83  A    between atoms: _189  and  _191
REMARK   84  A    between atoms: _191  and  _192
REMARK   85  A    between atoms: _191  and  _194
REMARK   86  A    between atoms: _194  and  _195
REMARK   87  A    between atoms: _199  and  _200
REMARK   88  A    between atoms: _205  and  _207
REMARK   89  A    between atoms: _207  and  _208
REMARK   90  A    between atoms: _207  and  _210
REMARK   91  A    between atoms: _210  and  _211
REMARK   92  A    between atoms: _215  and  _216
REMARK   93  A    between atoms: _221  and  _223
REMARK   94  A    between atoms: _223  and  _224
REMARK   95  A    between atoms: _223  and  _226
REMARK   96  A    between atoms: _229  and  _231
REMARK   97  A    between atoms: _231  and  _232
REMARK   98  A    between atoms: _231  and  _234
REMARK   99  A    between atoms: _234  and  _235
REMARK  100  A    between atoms: _240  and  _242
REMARK  101  A    between atoms: _242  and  _243
REMARK  102  A    between atoms: _242  and  _245
REMARK  103  A    between atoms: _245  and  _246
REMARK  104  A    between atoms: _249  and  _251
REMARK  105  A    between atoms: _251  and  _252
REMARK  106  A    between atoms: _251  and  _254
REMARK  107  A    between atoms: _254  and  _255
REMARK  108  A    between atoms: _258  and  _260
REMARK  109  A    between atoms: _260  and  _261
REMARK  110  A    between atoms: _263  and  _265
REMARK  111  A    between atoms: _265  and  _266
REMARK  112  A    between atoms: _265  and  _268
REMARK  113  A    between atoms: _268  and  _269
REMARK  114  A    between atoms: _269  and  _270
REMARK  115  A    between atoms: _270  and  _271
REMARK  116  A    between atoms: _280  and  _282
REMARK  117  A    between atoms: _282  and  _283
REMARK  118  A    between atoms: _282  and  _285
REMARK  119  A    between atoms: _285  and  _286
REMARK  120  A    between atoms: _291  and  _293
REMARK  121  A    between atoms: _293  and  _294
REMARK  122  A    between atoms: _293  and  _296
REMARK  123  A    between atoms: _296  and  _297
REMARK  124  A    between atoms: _297  and  _298
REMARK  125  A    between atoms: _298  and  _299
REMARK  126  A    between atoms: _308  and  _310
REMARK  127  A    between atoms: _310  and  _311
REMARK  128  A    between atoms: _310  and  _313
REMARK  129  A    between atoms: _313  and  _314
REMARK  130  A    between atoms: _317  and  _319
REMARK  131  A    between atoms: _319  and  _320
REMARK  132  A    between atoms: _319  and  _322
REMARK  133  A    between atoms: _322  and  _323
REMARK  134  A    between atoms: _326  and  _328
REMARK  135  A    between atoms: _328  and  _329
REMARK  136  A    between atoms: _328  and  _331
REMARK  137  A    between atoms: _331  and  _332
REMARK  138  A    between atoms: _335  and  _337
REMARK  139  A    between atoms: _337  and  _338
REMARK  140  A    between atoms: _337  and  _340
REMARK  141  A    between atoms: _340  and  _341
REMARK  142  A    between atoms: _344  and  _346
REMARK  143  A    between atoms: _346  and  _347
REMARK  144  A    between atoms: _349  and  _351
REMARK  145  A    between atoms: _351  and  _352
REMARK  146  A    between atoms: _355  and  _357
REMARK  147  A    between atoms: _357  and  _358
REMARK  148  A    between atoms: _357  and  _360
REMARK  149  A    between atoms: _360  and  _361
REMARK  150  A    between atoms: _364  and  _366
REMARK  151  A    between atoms: _366  and  _367
REMARK  152  A    between atoms: _366  and  _369
REMARK  153  A    between atoms: _369  and  _370
REMARK  154  A    between atoms: _373  and  _375
REMARK  155  A    between atoms: _375  and  _376
REMARK  156  A    between atoms: _375  and  _378
REMARK  157  A    between atoms: _378  and  _379
REMARK  158  A    between atoms: _382  and  _384
REMARK  159  A    between atoms: _384  and  _385
REMARK  160  A    between atoms: _384  and  _387
REMARK  161  A    between atoms: _390  and  _392
REMARK  162  A    between atoms: _392  and  _393
REMARK  163  A    between atoms: _392  and  _395
REMARK  164  A    between atoms: _395  and  _396
REMARK  165  A    between atoms: _396  and  _397
REMARK  166  A    between atoms: _397  and  _398
REMARK  167  A    between atoms: _398  and  _399
REMARK  168  A    between atoms: _403  and  _405
REMARK  169  A    between atoms: _405  and  _406
REMARK  170  A    between atoms: _405  and  _408
REMARK  171  A    between atoms: _408  and  _409
REMARK  172  A    between atoms: _409  and  _410
REMARK  173  A    between atoms: _412  and  _414
REMARK  174  A    between atoms: _414  and  _415
REMARK  175  A    between atoms: _414  and  _417
REMARK  176  A    between atoms: _417  and  _418
REMARK  177  A    between atoms: _421  and  _423
REMARK  178  A    between atoms: _423  and  _424
REMARK  179  A    between atoms: _426  and  _428
REMARK  180  A    between atoms: _428  and  _429
REMARK  181  A    between atoms: _431  and  _433
REMARK  182  A    between atoms: _433  and  _434
REMARK  183  A    between atoms: _433  and  _436
REMARK  184  A    between atoms: _436  and  _437
REMARK  185  A    between atoms: _440  and  _442
REMARK  186  A    between atoms: _442  and  _443
REMARK  187  A    between atoms: _445  and  _447
REMARK  188  A    between atoms: _447  and  _448
REMARK  189  A    between atoms: _450  and  _452
REMARK  190  A    between atoms: _452  and  _453
REMARK  191  A    between atoms: _452  and  _455
REMARK  192  A    between atoms: _455  and  _456
REMARK  193  A    between atoms: _462  and  _464
REMARK  194  A    between atoms: _464  and  _465
REMARK  195  A    between atoms: _464  and  _467
REMARK  196  A    between atoms: _467  and  _468
REMARK  197  A    between atoms: _471  and  _473
REMARK  198  A    between atoms: _473  and  _474
REMARK  199  A    between atoms: _473  and  _476
REMARK  200  A    between atoms: _476  and  _477
REMARK  201  A    between atoms: _480  and  _482
REMARK  202  A    between atoms: _482  and  _483
REMARK  203  A    between atoms: _482  and  _485
REMARK  204  A    between atoms: _485  and  _486
REMARK  205  A    between atoms: _490  and  _491
REMARK  206  A    between atoms: _496  and  _498
REMARK  207  A    between atoms: _498  and  _499
REMARK  208  A    between atoms: _498  and  _501
REMARK  209  A    between atoms: _504  and  _506
REMARK  210  A    between atoms: _506  and  _507
REMARK  211  A    between atoms: _506  and  _509
REMARK  212  A    between atoms: _509  and  _510
REMARK  213  A    between atoms: _515  and  _517
REMARK  214  A    between atoms: _517  and  _518
REMARK  215  A    between atoms: _517  and  _520
REMARK  216  A    between atoms: _520  and  _521
REMARK  217  A    between atoms: _524  and  _526
REMARK  218  A    between atoms: _526  and  _527
REMARK  219  A    between atoms: _526  and  _529
REMARK  220  A    between atoms: _529  and  _530
REMARK  221  A    between atoms: _533  and  _535
REMARK  222  A    between atoms: _535  and  _536
REMARK  223  A    between atoms: _538  and  _540
REMARK  224  A    between atoms: _540  and  _541
REMARK  225  A    between atoms: _540  and  _543
REMARK  226  A    between atoms: _543  and  _544
REMARK  227  A    between atoms: _544  and  _545
REMARK  228  A    between atoms: _545  and  _546
REMARK  229  A    between atoms: _555  and  _557
REMARK  230  A    between atoms: _557  and  _558
REMARK  231  A    between atoms: _557  and  _560
REMARK  232  A    between atoms: _560  and  _561
REMARK                            x       y       z     vdW  Elec       q    Type
REMARK                         _______ _______ _______ _____ _____    ______ ____
ROOT
ATOM      1  O   HOH     1      20.633  28.276  18.526  0.00  0.00    +0.000 OA
ENDROOT
TORSDOF 0
REMARK  Name = ../refined-set-2016/3djk/3djk_pocket.pdb
REMARK  232 active torsions:
REMARK  status: ('A' for Active; 'I' for Inactive)
REMARK    1  A    between atoms: _1  and  _3
REMARK    2  A    between atoms: _3  and  _4
REMARK    3  A    between atoms: _3  and  _6
REMARK    4  A    between atoms: _6  and  _7
REMARK    5  A    between atoms: _7  and  _8
REMARK    6  A    between atoms: _8  and  _9
REMARK    7  A    between atoms: _9  and  _11
REMARK    8  A    between atoms: _11  and  _15
REMARK    9  A    between atoms: _18  and  _20
REMARK   10  A    between atoms: _20  and  _21
REMARK   11  A    between atoms: _20  and  _23
REMARK   12  A    between atoms: _23  and  _24
REMARK   13  A    between atoms: _27  and  _29
REMARK   14  A    between atoms: _29  and  _30
REMARK   15  A    between atoms: _29  and  _32
REMARK   16  A    between atoms: _32  and  _33
REMARK   17  A    between atoms: _36  and  _38
REMARK   18  A    between atoms: _38  and  _39
REMARK   19  A    between atoms: _38  and  _41
REMARK   20  A    between atoms: _41  and  _42
REMARK   21  A    between atoms: _45  and  _47
REMARK   22  A    between atoms: _47  and  _48
REMARK   23  A    between atoms: _47  and  _50
REMARK   24  A    between atoms: _50  and  _51
REMARK   25  A    between atoms: _54  and  _56
REMARK   26  A    between atoms: _56  and  _57
REMARK   27  A    between atoms: _59  and  _61
REMARK   28  A    between atoms: _61  and  _62
REMARK   29  A    between atoms: _65  and  _67
REMARK   30  A    between atoms: _67  and  _68
REMARK   31  A    between atoms: _67  and  _70
REMARK   32  A    between atoms: _70  and  _71
REMARK   33  A    between atoms: _74  and  _76
REMARK   34  A    between atoms: _76  and  _77
REMARK   35  A    between atoms: _76  and  _79
REMARK   36  A    between atoms: _79  and  _80
REMARK   37  A    between atoms: _83  and  _85
REMARK   38  A    between atoms: _85  and  _86
REMARK   39  A    between atoms: _85  and  _88
REMARK   40  A    between atoms: _88  and  _89
REMARK   41  A    between atoms: _92  and  _94
REMARK   42  A    between atoms: _94  and  _95
REMARK   43  A    between atoms: _94  and  _97
REMARK   44  A    between atoms: _100  and  _102
REMARK   45  A    between atoms: _102  and  _103
REMARK   46  A    between atoms: _102  and  _105
REMARK   47  A    between atoms: _105  and  _106
REMARK   48  A    between atoms: _106  and  _107
REMARK   49  A    between atoms: _107  and  _108
REMARK   50  A    between atoms: _108  and  _109
REMARK   51  A    between atoms: _113  and  _115
REMARK   52  A    between atoms: _115  and  _116
REMARK   53  A    between atoms: _115  and  _118
REMARK   54  A    between atoms: _118  and  _119
REMARK   55  A    between atoms: _119  and  _120
REMARK   56  A    between atoms: _122  and  _124
REMARK   57  A    between atoms: _124  and  _125
REMARK   58  A    between atoms: _124  and  _127
REMARK   59  A    between atoms: _127  and  _128
REMARK   60  A    between atoms: _131  and  _133
REMARK   61  A    between atoms: _133  and  _134
REMARK   62  A    between atoms: _136  and  _138
REMARK   63  A    between atoms: _138  and  _139
REMARK   64  A    between atoms: _141  and  _143
REMARK   65  A    between atoms: _143  and  _144
REMARK   66  A    between atoms: _143  and  _146
REMARK   67  A    between atoms: _146  and  _147
REMARK   68  A    between atoms: _150  and  _152
REMARK   69  A    between atoms: _152  and  _153
REMARK   70  A    between atoms: _155  and  _157
REMARK   71  A    between atoms: _157  and  _158
REMARK   72  A    between atoms: _160  and  _162
REMARK   73  A    between atoms: _162  and  _163
REMARK   74  A    between atoms: _162  and  _165
REMARK   75  A    between atoms: _165  and  _166
REMARK   76  A    between atoms: _172  and  _174
REMARK   77  A    between atoms: _174  and  _175
REMARK   78  A    between atoms: _174  and  _177
REMARK   79  A    between atoms: _177  and  _178
REMARK   80  A    between atoms: _181  and  _183
REMARK   81  A    between atoms: _183  and  _184
REMARK   82  A    between atoms: _183  and  _186
REMARK   83  A    between atoms: _189  and  _191
REMARK   84  A    between atoms: _191  and  _192
REMARK   85  A    between atoms: _191  and  _194
REMARK   86  A    between atoms: _194  and  _195
REMARK   87  A    between atoms: _199  and  _200
REMARK   88  A    between atoms: _205  and  _207
REMARK   89  A    between atoms: _207  and  _208
REMARK   90  A    between atoms: _207  and  _210
REMARK   91  A    between atoms: _210  and  _211
REMARK   92  A    between atoms: _215  and  _216
REMARK   93  A    between atoms: _221  and  _223
REMARK   94  A    between atoms: _223  and  _224
REMARK   95  A    between atoms: _223  and  _226
REMARK   96  A    between atoms: _229  and  _231
REMARK   97  A    between atoms: _231  and  _232
REMARK   98  A    between atoms: _231  and  _234
REMARK   99  A    between atoms: _234  and  _235
REMARK  100  A    between atoms: _240  and  _242
REMARK  101  A    between atoms: _242  and  _243
REMARK  102  A    between atoms: _242  and  _245
REMARK  103  A    between atoms: _245  and  _246
REMARK  104  A    between atoms: _249  and  _251
REMARK  105  A    between atoms: _251  and  _252
REMARK  106  A    between atoms: _251  and  _254
REMARK  107  A    between atoms: _254  and  _255
REMARK  108  A    between atoms: _258  and  _260
REMARK  109  A    between atoms: _260  and  _261
REMARK  110  A    between atoms: _263  and  _265
REMARK  111  A    between atoms: _265  and  _266
REMARK  112  A    between atoms: _265  and  _268
REMARK  113  A    between atoms: _268  and  _269
REMARK  114  A    between atoms: _269  and  _270
REMARK  115  A    between atoms: _270  and  _271
REMARK  116  A    between atoms: _280  and  _282
REMARK  117  A    between atoms: _282  and  _283
REMARK  118  A    between atoms: _282  and  _285
REMARK  119  A    between atoms: _285  and  _286
REMARK  120  A    between atoms: _291  and  _293
REMARK  121  A    between atoms: _293  and  _294
REMARK  122  A    between atoms: _293  and  _296
REMARK  123  A    between atoms: _296  and  _297
REMARK  124  A    between atoms: _297  and  _298
REMARK  125  A    between atoms: _298  and  _299
REMARK  126  A    between atoms: _308  and  _310
REMARK  127  A    between atoms: _310  and  _311
REMARK  128  A    between atoms: _310  and  _313
REMARK  129  A    between atoms: _313  and  _314
REMARK  130  A    between atoms: _317  and  _319
REMARK  131  A    between atoms: _319  and  _320
REMARK  132  A    between atoms: _319  and  _322
REMARK  133  A    between atoms: _322  and  _323
REMARK  134  A    between atoms: _326  and  _328
REMARK  135  A    between atoms: _328  and  _329
REMARK  136  A    between atoms: _328  and  _331
REMARK  137  A    between atoms: _331  and  _332
REMARK  138  A    between atoms: _335  and  _337
REMARK  139  A    between atoms: _337  and  _338
REMARK  140  A    between atoms: _337  and  _340
REMARK  141  A    between atoms: _340  and  _341
REMARK  142  A    between atoms: _344  and  _346
REMARK  143  A    between atoms: _346  and  _347
REMARK  144  A    between atoms: _349  and  _351
REMARK  145  A    between atoms: _351  and  _352
REMARK  146  A    between atoms: _355  and  _357
REMARK  147  A    between atoms: _357  and  _358
REMARK  148  A    between atoms: _357  and  _360
REMARK  149  A    between atoms: _360  and  _361
REMARK  150  A    between atoms: _364  and  _366
REMARK  151  A    between atoms: _366  and  _367
REMARK  152  A    between atoms: _366  and  _369
REMARK  153  A    between atoms: _369  and  _370
REMARK  154  A    between atoms: _373  and  _375
REMARK  155  A    between atoms: _375  and  _376
REMARK  156  A    between atoms: _375  and  _378
REMARK  157  A    between atoms: _378  and  _379
REMARK  158  A    between atoms: _382  and  _384
REMARK  159  A    between atoms: _384  and  _385
REMARK  160  A    between atoms: _384  and  _387
REMARK  161  A    between atoms: _390  and  _392
REMARK  162  A    between atoms: _392  and  _393
REMARK  163  A    between atoms: _392  and  _395
REMARK  164  A    between atoms: _395  and  _396
REMARK  165  A    between atoms: _396  and  _397
REMARK  166  A    between atoms: _397  and  _398
REMARK  167  A    between atoms: _398  and  _399
REMARK  168  A    between atoms: _403  and  _405
REMARK  169  A    between atoms: _405  and  _406
REMARK  170  A    between atoms: _405  and  _408
REMARK  171  A    between atoms: _408  and  _409
REMARK  172  A    between atoms: _409  and  _410
REMARK  173  A    between atoms: _412  and  _414
REMARK  174  A    between atoms: _414  and  _415
REMARK  175  A    between atoms: _414  and  _417
REMARK  176  A    between atoms: _417  and  _418
REMARK  177  A    between atoms: _421  and  _423
REMARK  178  A    between atoms: _423  and  _424
REMARK  179  A    between atoms: _426  and  _428
REMARK  180  A    between atoms: _428  and  _429
REMARK  181  A    between atoms: _431  and  _433
REMARK  182  A    between atoms: _433  and  _434
REMARK  183  A    between atoms: _433  and  _436
REMARK  184  A    between atoms: _436  and  _437
REMARK  185  A    between atoms: _440  and  _442
REMARK  186  A    between atoms: _442  and  _443
REMARK  187  A    between atoms: _445  and  _447
REMARK  188  A    between atoms: _447  and  _448
REMARK  189  A    between atoms: _450  and  _452
REMARK  190  A    between atoms: _452  and  _453
REMARK  191  A    between atoms: _452  and  _455
REMARK  192  A    between atoms: _455  and  _456
REMARK  193  A    between atoms: _462  and  _464
REMARK  194  A    between atoms: _464  and  _465
REMARK  195  A    between atoms: _464  and  _467
REMARK  196  A    between atoms: _467  and  _468
REMARK  197  A    between atoms: _471  and  _473
REMARK  198  A    between atoms: _473  and  _474
REMARK  199  A    between atoms: _473  and  _476
REMARK  200  A    between atoms: _476  and  _477
REMARK  201  A    between atoms: _480  and  _482
REMARK  202  A    between atoms: _482  and  _483
REMARK  203  A    between atoms: _482  and  _485
REMARK  204  A    between atoms: _485  and  _486
REMARK  205  A    between atoms: _490  and  _491
REMARK  206  A    between atoms: _496  and  _498
REMARK  207  A    between atoms: _498  and  _499
REMARK  208  A    between atoms: _498  and  _501
REMARK  209  A    between atoms: _504  and  _506
REMARK  210  A    between atoms: _506  and  _507
REMARK  211  A    between atoms: _506  and  _509
REMARK  212  A    between atoms: _509  and  _510
REMARK  213  A    between atoms: _515  and  _517
REMARK  214  A    between atoms: _517  and  _518
REMARK  215  A    between atoms: _517  and  _520
REMARK  216  A    between atoms: _520  and  _521
REMARK  217  A    between atoms: _524  and  _526
REMARK  218  A    between atoms: _526  and  _527
REMARK  219  A    between atoms: _526  and  _529
REMARK  220  A    between atoms: _529  and  _530
REMARK  221  A    between atoms: _533  and  _535
REMARK  222  A    between atoms: _535  and  _536
REMARK  223  A    between atoms: _538  and  _540
REMARK  224  A    between atoms: _540  and  _541
REMARK  225  A    between atoms: _540  and  _543
REMARK  226  A    between atoms: _543  and  _544
REMARK  227  A    between atoms: _544  and  _545
REMARK  228  A    between atoms: _545  and  _546
REMARK  229  A    between atoms: _555  and  _557
REMARK  230  A    between atoms: _557  and  _558
REMARK  231  A    between atoms: _557  and  _560
REMARK  232  A    between atoms: _560  and  _561
REMARK                            x       y       z     vdW  Elec       q    Type
REMARK                         _______ _______ _______ _____ _____    ______ ____
ROOT
ATOM      1  O   HOH     1      20.929  35.984  17.622  0.00  0.00    +0.000 OA
ENDROOT
TORSDOF 0
REMARK  Name = ../refined-set-2016/3djk/3djk_pocket.pdb
REMARK  232 active torsions:
REMARK  status: ('A' for Active; 'I' for Inactive)
REMARK    1  A    between atoms: _1  and  _3
REMARK    2  A    between atoms: _3  and  _4
REMARK    3  A    between atoms: _3  and  _6
REMARK    4  A    between atoms: _6  and  _7
REMARK    5  A    between atoms: _7  and  _8
REMARK    6  A    between atoms: _8  and  _9
REMARK    7  A    between atoms: _9  and  _11
REMARK    8  A    between atoms: _11  and  _15
REMARK    9  A    between atoms: _18  and  _20
REMARK   10  A    between atoms: _20  and  _21
REMARK   11  A    between atoms: _20  and  _23
REMARK   12  A    between atoms: _23  and  _24
REMARK   13  A    between atoms: _27  and  _29
REMARK   14  A    between atoms: _29  and  _30
REMARK   15  A    between atoms: _29  and  _32
REMARK   16  A    between atoms: _32  and  _33
REMARK   17  A    between atoms: _36  and  _38
REMARK   18  A    between atoms: _38  and  _39
REMARK   19  A    between atoms: _38  and  _41
REMARK   20  A    between atoms: _41  and  _42
REMARK   21  A    between atoms: _45  and  _47
REMARK   22  A    between atoms: _47  and  _48
REMARK   23  A    between atoms: _47  and  _50
REMARK   24  A    between atoms: _50  and  _51
REMARK   25  A    between atoms: _54  and  _56
REMARK   26  A    between atoms: _56  and  _57
REMARK   27  A    between atoms: _59  and  _61
REMARK   28  A    between atoms: _61  and  _62
REMARK   29  A    between atoms: _65  and  _67
REMARK   30  A    between atoms: _67  and  _68
REMARK   31  A    between atoms: _67  and  _70
REMARK   32  A    between atoms: _70  and  _71
REMARK   33  A    between atoms: _74  and  _76
REMARK   34  A    between atoms: _76  and  _77
REMARK   35  A    between atoms: _76  and  _79
REMARK   36  A    between atoms: _79  and  _80
REMARK   37  A    between atoms: _83  and  _85
REMARK   38  A    between atoms: _85  and  _86
REMARK   39  A    between atoms: _85  and  _88
REMARK   40  A    between atoms: _88  and  _89
REMARK   41  A    between atoms: _92  and  _94
REMARK   42  A    between atoms: _94  and  _95
REMARK   43  A    between atoms: _94  and  _97
REMARK   44  A    between atoms: _100  and  _102
REMARK   45  A    between atoms: _102  and  _103
REMARK   46  A    between atoms: _102  and  _105
REMARK   47  A    between atoms: _105  and  _106
REMARK   48  A    between atoms: _106  and  _107
REMARK   49  A    between atoms: _107  and  _108
REMARK   50  A    between atoms: _108  and  _109
REMARK   51  A    between atoms: _113  and  _115
REMARK   52  A    between atoms: _115  and  _116
REMARK   53  A    between atoms: _115  and  _118
REMARK   54  A    between atoms: _118  and  _119
REMARK   55  A    between atoms: _119  and  _120
REMARK   56  A    between atoms: _122  and  _124
REMARK   57  A    between atoms: _124  and  _125
REMARK   58  A    between atoms: _124  and  _127
REMARK   59  A    between atoms: _127  and  _128
REMARK   60  A    between atoms: _131  and  _133
REMARK   61  A    between atoms: _133  and  _134
REMARK   62  A    between atoms: _136  and  _138
REMARK   63  A    between atoms: _138  and  _139
REMARK   64  A    between atoms: _141  and  _143
REMARK   65  A    between atoms: _143  and  _144
REMARK   66  A    between atoms: _143  and  _146
REMARK   67  A    between atoms: _146  and  _147
REMARK   68  A    between atoms: _150  and  _152
REMARK   69  A    between atoms: _152  and  _153
REMARK   70  A    between atoms: _155  and  _157
REMARK   71  A    between atoms: _157  and  _158
REMARK   72  A    between atoms: _160  and  _162
REMARK   73  A    between atoms: _162  and  _163
REMARK   74  A    between atoms: _162  and  _165
REMARK   75  A    between atoms: _165  and  _166
REMARK   76  A    between atoms: _172  and  _174
REMARK   77  A    between atoms: _174  and  _175
REMARK   78  A    between atoms: _174  and  _177
REMARK   79  A    between atoms: _177  and  _178
REMARK   80  A    between atoms: _181  and  _183
REMARK   81  A    between atoms: _183  and  _184
REMARK   82  A    between atoms: _183  and  _186
REMARK   83  A    between atoms: _189  and  _191
REMARK   84  A    between atoms: _191  and  _192
REMARK   85  A    between atoms: _191  and  _194
REMARK   86  A    between atoms: _194  and  _195
REMARK   87  A    between atoms: _199  and  _200
REMARK   88  A    between atoms: _205  and  _207
REMARK   89  A    between atoms: _207  and  _208
REMARK   90  A    between atoms: _207  and  _210
REMARK   91  A    between atoms: _210  and  _211
REMARK   92  A    between atoms: _215  and  _216
REMARK   93  A    between atoms: _221  and  _223
REMARK   94  A    between atoms: _223  and  _224
REMARK   95  A    between atoms: _223  and  _226
REMARK   96  A    between atoms: _229  and  _231
REMARK   97  A    between atoms: _231  and  _232
REMARK   98  A    between atoms: _231  and  _234
REMARK   99  A    between atoms: _234  and  _235
REMARK  100  A    between atoms: _240  and  _242
REMARK  101  A    between atoms: _242  and  _243
REMARK  102  A    between atoms: _242  and  _245
REMARK  103  A    between atoms: _245  and  _246
REMARK  104  A    between atoms: _249  and  _251
REMARK  105  A    between atoms: _251  and  _252
REMARK  106  A    between atoms: _251  and  _254
REMARK  107  A    between atoms: _254  and  _255
REMARK  108  A    between atoms: _258  and  _260
REMARK  109  A    between atoms: _260  and  _261
REMARK  110  A    between atoms: _263  and  _265
REMARK  111  A    between atoms: _265  and  _266
REMARK  112  A    between atoms: _265  and  _268
REMARK  113  A    between atoms: _268  and  _269
REMARK  114  A    between atoms: _269  and  _270
REMARK  115  A    between atoms: _270  and  _271
REMARK  116  A    between atoms: _280  and  _282
REMARK  117  A    between atoms: _282  and  _283
REMARK  118  A    between atoms: _282  and  _285
REMARK  119  A    between atoms: _285  and  _286
REMARK  120  A    between atoms: _291  and  _293
REMARK  121  A    between atoms: _293  and  _294
REMARK  122  A    between atoms: _293  and  _296
REMARK  123  A    between atoms: _296  and  _297
REMARK  124  A    between atoms: _297  and  _298
REMARK  125  A    between atoms: _298  and  _299
REMARK  126  A    between atoms: _308  and  _310
REMARK  127  A    between atoms: _310  and  _311
REMARK  128  A    between atoms: _310  and  _313
REMARK  129  A    between atoms: _313  and  _314
REMARK  130  A    between atoms: _317  and  _319
REMARK  131  A    between atoms: _319  and  _320
REMARK  132  A    between atoms: _319  and  _322
REMARK  133  A    between atoms: _322  and  _323
REMARK  134  A    between atoms: _326  and  _328
REMARK  135  A    between atoms: _328  and  _329
REMARK  136  A    between atoms: _328  and  _331
REMARK  137  A    between atoms: _331  and  _332
REMARK  138  A    between atoms: _335  and  _337
REMARK  139  A    between atoms: _337  and  _338
REMARK  140  A    between atoms: _337  and  _340
REMARK  141  A    between atoms: _340  and  _341
REMARK  142  A    between atoms: _344  and  _346
REMARK  143  A    between atoms: _346  and  _347
REMARK  144  A    between atoms: _349  and  _351
REMARK  145  A    between atoms: _351  and  _352
REMARK  146  A    between atoms: _355  and  _357
REMARK  147  A    between atoms: _357  and  _358
REMARK  148  A    between atoms: _357  and  _360
REMARK  149  A    between atoms: _360  and  _361
REMARK  150  A    between atoms: _364  and  _366
REMARK  151  A    between atoms: _366  and  _367
REMARK  152  A    between atoms: _366  and  _369
REMARK  153  A    between atoms: _369  and  _370
REMARK  154  A    between atoms: _373  and  _375
REMARK  155  A    between atoms: _375  and  _376
REMARK  156  A    between atoms: _375  and  _378
REMARK  157  A    between atoms: _378  and  _379
REMARK  158  A    between atoms: _382  and  _384
REMARK  159  A    between atoms: _384  and  _385
REMARK  160  A    between atoms: _384  and  _387
REMARK  161  A    between atoms: _390  and  _392
REMARK  162  A    between atoms: _392  and  _393
REMARK  163  A    between atoms: _392  and  _395
REMARK  164  A    between atoms: _395  and  _396
REMARK  165  A    between atoms: _396  and  _397
REMARK  166  A    between atoms: _397  and  _398
REMARK  167  A    between atoms: _398  and  _399
REMARK  168  A    between atoms: _403  and  _405
REMARK  169  A    between atoms: _405  and  _406
REMARK  170  A    between atoms: _405  and  _408
REMARK  171  A    between atoms: _408  and  _409
REMARK  172  A    between atoms: _409  and  _410
REMARK  173  A    between atoms: _412  and  _414
REMARK  174  A    between atoms: _414  and  _415
REMARK  175  A    between atoms: _414  and  _417
REMARK  176  A    between atoms: _417  and  _418
REMARK  177  A    between atoms: _421  and  _423
REMARK  178  A    between atoms: _423  and  _424
REMARK  179  A    between atoms: _426  and  _428
REMARK  180  A    between atoms: _428  and  _429
REMARK  181  A    between atoms: _431  and  _433
REMARK  182  A    between atoms: _433  and  _434
REMARK  183  A    between atoms: _433  and  _436
REMARK  184  A    between atoms: _436  and  _437
REMARK  185  A    between atoms: _440  and  _442
REMARK  186  A    between atoms: _442  and  _443
REMARK  187  A    between atoms: _445  and  _447
REMARK  188  A    between atoms: _447  and  _448
REMARK  189  A    between atoms: _450  and  _452
REMARK  190  A    between atoms: _452  and  _453
REMARK  191  A    between atoms: _452  and  _455
REMARK  192  A    between atoms: _455  and  _456
REMARK  193  A    between atoms: _462  and  _464
REMARK  194  A    between atoms: _464  and  _465
REMARK  195  A    between atoms: _464  and  _467
REMARK  196  A    between atoms: _467  and  _468
REMARK  197  A    between atoms: _471  and  _473
REMARK  198  A    between atoms: _473  and  _474
REMARK  199  A    between atoms: _473  and  _476
REMARK  200  A    between atoms: _476  and  _477
REMARK  201  A    between atoms: _480  and  _482
REMARK  202  A    between atoms: _482  and  _483
REMARK  203  A    between atoms: _482  and  _485
REMARK  204  A    between atoms: _485  and  _486
REMARK  205  A    between atoms: _490  and  _491
REMARK  206  A    between atoms: _496  and  _498
REMARK  207  A    between atoms: _498  and  _499
REMARK  208  A    between atoms: _498  and  _501
REMARK  209  A    between atoms: _504  and  _506
REMARK  210  A    between atoms: _506  and  _507
REMARK  211  A    between atoms: _506  and  _509
REMARK  212  A    between atoms: _509  and  _510
REMARK  213  A    between atoms: _515  and  _517
REMARK  214  A    between atoms: _517  and  _518
REMARK  215  A    between atoms: _517  and  _520
REMARK  216  A    between atoms: _520  and  _521
REMARK  217  A    between atoms: _524  and  _526
REMARK  218  A    between atoms: _526  and  _527
REMARK  219  A    between atoms: _526  and  _529
REMARK  220  A    between atoms: _529  and  _530
REMARK  221  A    between atoms: _533  and  _535
REMARK  222  A    between atoms: _535  and  _536
REMARK  223  A    between atoms: _538  and  _540
REMARK  224  A    between atoms: _540  and  _541
REMARK  225  A    between atoms: _540  and  _543
REMARK  226  A    between atoms: _543  and  _544
REMARK  227  A    between atoms: _544  and  _545
REMARK  228  A    between atoms: _545  and  _546
REMARK  229  A    between atoms: _555  and  _557
REMARK  230  A    between atoms: _557  and  _558
REMARK  231  A    between atoms: _557  and  _560
REMARK  232  A    between atoms: _560  and  _561
REMARK                            x       y       z     vdW  Elec       q    Type
REMARK                         _______ _______ _______ _____ _____    ______ ____
ROOT
ATOM      1  O   HOH     1       8.718  22.323  16.527  0.00  0.00    +0.000 OA
ENDROOT
TORSDOF 0
REMARK  Name = ../refined-set-2016/3djk/3djk_pocket.pdb
REMARK  232 active torsions:
REMARK  status: ('A' for Active; 'I' for Inactive)
REMARK    1  A    between atoms: _1  and  _3
REMARK    2  A    between atoms: _3  and  _4
REMARK    3  A    between atoms: _3  and  _6
REMARK    4  A    between atoms: _6  and  _7
REMARK    5  A    between atoms: _7  and  _8
REMARK    6  A    between atoms: _8  and  _9
REMARK    7  A    between atoms: _9  and  _11
REMARK    8  A    between atoms: _11  and  _15
REMARK    9  A    between atoms: _18  and  _20
REMARK   10  A    between atoms: _20  and  _21
REMARK   11  A    between atoms: _20  and  _23
REMARK   12  A    between atoms: _23  and  _24
REMARK   13  A    between atoms: _27  and  _29
REMARK   14  A    between atoms: _29  and  _30
REMARK   15  A    between atoms: _29  and  _32
REMARK   16  A    between atoms: _32  and  _33
REMARK   17  A    between atoms: _36  and  _38
REMARK   18  A    between atoms: _38  and  _39
REMARK   19  A    between atoms: _38  and  _41
REMARK   20  A    between atoms: _41  and  _42
REMARK   21  A    between atoms: _45  and  _47
REMARK   22  A    between atoms: _47  and  _48
REMARK   23  A    between atoms: _47  and  _50
REMARK   24  A    between atoms: _50  and  _51
REMARK   25  A    between atoms: _54  and  _56
REMARK   26  A    between atoms: _56  and  _57
REMARK   27  A    between atoms: _59  and  _61
REMARK   28  A    between atoms: _61  and  _62
REMARK   29  A    between atoms: _65  and  _67
REMARK   30  A    between atoms: _67  and  _68
REMARK   31  A    between atoms: _67  and  _70
REMARK   32  A    between atoms: _70  and  _71
REMARK   33  A    between atoms: _74  and  _76
REMARK   34  A    between atoms: _76  and  _77
REMARK   35  A    between atoms: _76  and  _79
REMARK   36  A    between atoms: _79  and  _80
REMARK   37  A    between atoms: _83  and  _85
REMARK   38  A    between atoms: _85  and  _86
REMARK   39  A    between atoms: _85  and  _88
REMARK   40  A    between atoms: _88  and  _89
REMARK   41  A    between atoms: _92  and  _94
REMARK   42  A    between atoms: _94  and  _95
REMARK   43  A    between atoms: _94  and  _97
REMARK   44  A    between atoms: _100  and  _102
REMARK   45  A    between atoms: _102  and  _103
REMARK   46  A    between atoms: _102  and  _105
REMARK   47  A    between atoms: _105  and  _106
REMARK   48  A    between atoms: _106  and  _107
REMARK   49  A    between atoms: _107  and  _108
REMARK   50  A    between atoms: _108  and  _109
REMARK   51  A    between atoms: _113  and  _115
REMARK   52  A    between atoms: _115  and  _116
REMARK   53  A    between atoms: _115  and  _118
REMARK   54  A    between atoms: _118  and  _119
REMARK   55  A    between atoms: _119  and  _120
REMARK   56  A    between atoms: _122  and  _124
REMARK   57  A    between atoms: _124  and  _125
REMARK   58  A    between atoms: _124  and  _127
REMARK   59  A    between atoms: _127  and  _128
REMARK   60  A    between atoms: _131  and  _133
REMARK   61  A    between atoms: _133  and  _134
REMARK   62  A    between atoms: _136  and  _138
REMARK   63  A    between atoms: _138  and  _139
REMARK   64  A    between atoms: _141  and  _143
REMARK   65  A    between atoms: _143  and  _144
REMARK   66  A    between atoms: _143  and  _146
REMARK   67  A    between atoms: _146  and  _147
REMARK   68  A    between atoms: _150  and  _152
REMARK   69  A    between atoms: _152  and  _153
REMARK   70  A    between atoms: _155  and  _157
REMARK   71  A    between atoms: _157  and  _158
REMARK   72  A    between atoms: _160  and  _162
REMARK   73  A    between atoms: _162  and  _163
REMARK   74  A    between atoms: _162  and  _165
REMARK   75  A    between atoms: _165  and  _166
REMARK   76  A    between atoms: _172  and  _174
REMARK   77  A    between atoms: _174  and  _175
REMARK   78  A    between atoms: _174  and  _177
REMARK   79  A    between atoms: _177  and  _178
REMARK   80  A    between atoms: _181  and  _183
REMARK   81  A    between atoms: _183  and  _184
REMARK   82  A    between atoms: _183  and  _186
REMARK   83  A    between atoms: _189  and  _191
REMARK   84  A    between atoms: _191  and  _192
REMARK   85  A    between atoms: _191  and  _194
REMARK   86  A    between atoms: _194  and  _195
REMARK   87  A    between atoms: _199  and  _200
REMARK   88  A    between atoms: _205  and  _207
REMARK   89  A    between atoms: _207  and  _208
REMARK   90  A    between atoms: _207  and  _210
REMARK   91  A    between atoms: _210  and  _211
REMARK   92  A    between atoms: _215  and  _216
REMARK   93  A    between atoms: _221  and  _223
REMARK   94  A    between atoms: _223  and  _224
REMARK   95  A    between atoms: _223  and  _226
REMARK   96  A    between atoms: _229  and  _231
REMARK   97  A    between atoms: _231  and  _232
REMARK   98  A    between atoms: _231  and  _234
REMARK   99  A    between atoms: _234  and  _235
REMARK  100  A    between atoms: _240  and  _242
REMARK  101  A    between atoms: _242  and  _243
REMARK  102  A    between atoms: _242  and  _245
REMARK  103  A    between atoms: _245  and  _246
REMARK  104  A    between atoms: _249  and  _251
REMARK  105  A    between atoms: _251  and  _252
REMARK  106  A    between atoms: _251  and  _254
REMARK  107  A    between atoms: _254  and  _255
REMARK  108  A    between atoms: _258  and  _260
REMARK  109  A    between atoms: _260  and  _261
REMARK  110  A    between atoms: _263  and  _265
REMARK  111  A    between atoms: _265  and  _266
REMARK  112  A    between atoms: _265  and  _268
REMARK  113  A    between atoms: _268  and  _269
REMARK  114  A    between atoms: _269  and  _270
REMARK  115  A    between atoms: _270  and  _271
REMARK  116  A    between atoms: _280  and  _282
REMARK  117  A    between atoms: _282  and  _283
REMARK  118  A    between atoms: _282  and  _285
REMARK  119  A    between atoms: _285  and  _286
REMARK  120  A    between atoms: _291  and  _293
REMARK  121  A    between atoms: _293  and  _294
REMARK  122  A    between atoms: _293  and  _296
REMARK  123  A    between atoms: _296  and  _297
REMARK  124  A    between atoms: _297  and  _298
REMARK  125  A    between atoms: _298  and  _299
REMARK  126  A    between atoms: _308  and  _310
REMARK  127  A    between atoms: _310  and  _311
REMARK  128  A    between atoms: _310  and  _313
REMARK  129  A    between atoms: _313  and  _314
REMARK  130  A    between atoms: _317  and  _319
REMARK  131  A    between atoms: _319  and  _320
REMARK  132  A    between atoms: _319  and  _322
REMARK  133  A    between atoms: _322  and  _323
REMARK  134  A    between atoms: _326  and  _328
REMARK  135  A    between atoms: _328  and  _329
REMARK  136  A    between atoms: _328  and  _331
REMARK  137  A    between atoms: _331  and  _332
REMARK  138  A    between atoms: _335  and  _337
REMARK  139  A    between atoms: _337  and  _338
REMARK  140  A    between atoms: _337  and  _340
REMARK  141  A    between atoms: _340  and  _341
REMARK  142  A    between atoms: _344  and  _346
REMARK  143  A    between atoms: _346  and  _347
REMARK  144  A    between atoms: _349  and  _351
REMARK  145  A    between atoms: _351  and  _352
REMARK  146  A    between atoms: _355  and  _357
REMARK  147  A    between atoms: _357  and  _358
REMARK  148  A    between atoms: _357  and  _360
REMARK  149  A    between atoms: _360  and  _361
REMARK  150  A    between atoms: _364  and  _366
REMARK  151  A    between atoms: _366  and  _367
REMARK  152  A    between atoms: _366  and  _369
REMARK  153  A    between atoms: _369  and  _370
REMARK  154  A    between atoms: _373  and  _375
REMARK  155  A    between atoms: _375  and  _376
REMARK  156  A    between atoms: _375  and  _378
REMARK  157  A    between atoms: _378  and  _379
REMARK  158  A    between atoms: _382  and  _384
REMARK  159  A    between atoms: _384  and  _385
REMARK  160  A    between atoms: _384  and  _387
REMARK  161  A    between atoms: _390  and  _392
REMARK  162  A    between atoms: _392  and  _393
REMARK  163  A    between atoms: _392  and  _395
REMARK  164  A    between atoms: _395  and  _396
REMARK  165  A    between atoms: _396  and  _397
REMARK  166  A    between atoms: _397  and  _398
REMARK  167  A    between atoms: _398  and  _399
REMARK  168  A    between atoms: _403  and  _405
REMARK  169  A    between atoms: _405  and  _406
REMARK  170  A    between atoms: _405  and  _408
REMARK  171  A    between atoms: _408  and  _409
REMARK  172  A    between atoms: _409  and  _410
REMARK  173  A    between atoms: _412  and  _414
REMARK  174  A    between atoms: _414  and  _415
REMARK  175  A    between atoms: _414  and  _417
REMARK  176  A    between atoms: _417  and  _418
REMARK  177  A    between atoms: _421  and  _423
REMARK  178  A    between atoms: _423  and  _424
REMARK  179  A    between atoms: _426  and  _428
REMARK  180  A    between atoms: _428  and  _429
REMARK  181  A    between atoms: _431  and  _433
REMARK  182  A    between atoms: _433  and  _434
REMARK  183  A    between atoms: _433  and  _436
REMARK  184  A    between atoms: _436  and  _437
REMARK  185  A    between atoms: _440  and  _442
REMARK  186  A    between atoms: _442  and  _443
REMARK  187  A    between atoms: _445  and  _447
REMARK  188  A    between atoms: _447  and  _448
REMARK  189  A    between atoms: _450  and  _452
REMARK  190  A    between atoms: _452  and  _453
REMARK  191  A    between atoms: _452  and  _455
REMARK  192  A    between atoms: _455  and  _456
REMARK  193  A    between atoms: _462  and  _464
REMARK  194  A    between atoms: _464  and  _465
REMARK  195  A    between atoms: _464  and  _467
REMARK  196  A    between atoms: _467  and  _468
REMARK  197  A    between atoms: _471  and  _473
REMARK  198  A    between atoms: _473  and  _474
REMARK  199  A    between atoms: _473  and  _476
REMARK  200  A    between atoms: _476  and  _477
REMARK  201  A    between atoms: _480  and  _482
REMARK  202  A    between atoms: _482  and  _483
REMARK  203  A    between atoms: _482  and  _485
REMARK  204  A    between atoms: _485  and  _486
REMARK  205  A    between atoms: _490  and  _491
REMARK  206  A    between atoms: _496  and  _498
REMARK  207  A    between atoms: _498  and  _499
REMARK  208  A    between atoms: _498  and  _501
REMARK  209  A    between atoms: _504  and  _506
REMARK  210  A    between atoms: _506  and  _507
REMARK  211  A    between atoms: _506  and  _509
REMARK  212  A    between atoms: _509  and  _510
REMARK  213  A    between atoms: _515  and  _517
REMARK  214  A    between atoms: _517  and  _518
REMARK  215  A    between atoms: _517  and  _520
REMARK  216  A    between atoms: _520  and  _521
REMARK  217  A    between atoms: _524  and  _526
REMARK  218  A    between atoms: _526  and  _527
REMARK  219  A    between atoms: _526  and  _529
REMARK  220  A    between atoms: _529  and  _530
REMARK  221  A    between atoms: _533  and  _535
REMARK  222  A    between atoms: _535  and  _536
REMARK  223  A    between atoms: _538  and  _540
REMARK  224  A    between atoms: _540  and  _541
REMARK  225  A    between atoms: _540  and  _543
REMARK  226  A    between atoms: _543  and  _544
REMARK  227  A    between atoms: _544  and  _545
REMARK  228  A    between atoms: _545  and  _546
REMARK  229  A    between atoms: _555  and  _557
REMARK  230  A    between atoms: _557  and  _558
REMARK  231  A    between atoms: _557  and  _560
REMARK  232  A    between atoms: _560  and  _561
REMARK                            x       y       z     vdW  Elec       q    Type
REMARK                         _______ _______ _______ _____ _____    ______ ____
ROOT
ATOM      1  O   HOH     1       9.866  18.482  12.887  0.00  0.00    +0.000 OA
ENDROOT
TORSDOF 0
REMARK  Name = ../refined-set-2016/3djk/3djk_pocket.pdb
REMARK  232 active torsions:
REMARK  status: ('A' for Active; 'I' for Inactive)
REMARK    1  A    between atoms: _1  and  _3
REMARK    2  A    between atoms: _3  and  _4
REMARK    3  A    between atoms: _3  and  _6
REMARK    4  A    between atoms: _6  and  _7
REMARK    5  A    between atoms: _7  and  _8
REMARK    6  A    between atoms: _8  and  _9
REMARK    7  A    between atoms: _9  and  _11
REMARK    8  A    between atoms: _11  and  _15
REMARK    9  A    between atoms: _18  and  _20
REMARK   10  A    between atoms: _20  and  _21
REMARK   11  A    between atoms: _20  and  _23
REMARK   12  A    between atoms: _23  and  _24
REMARK   13  A    between atoms: _27  and  _29
REMARK   14  A    between atoms: _29  and  _30
REMARK   15  A    between atoms: _29  and  _32
REMARK   16  A    between atoms: _32  and  _33
REMARK   17  A    between atoms: _36  and  _38
REMARK   18  A    between atoms: _38  and  _39
REMARK   19  A    between atoms: _38  and  _41
REMARK   20  A    between atoms: _41  and  _42
REMARK   21  A    between atoms: _45  and  _47
REMARK   22  A    between atoms: _47  and  _48
REMARK   23  A    between atoms: _47  and  _50
REMARK   24  A    between atoms: _50  and  _51
REMARK   25  A    between atoms: _54  and  _56
REMARK   26  A    between atoms: _56  and  _57
REMARK   27  A    between atoms: _59  and  _61
REMARK   28  A    between atoms: _61  and  _62
REMARK   29  A    between atoms: _65  and  _67
REMARK   30  A    between atoms: _67  and  _68
REMARK   31  A    between atoms: _67  and  _70
REMARK   32  A    between atoms: _70  and  _71
REMARK   33  A    between atoms: _74  and  _76
REMARK   34  A    between atoms: _76  and  _77
REMARK   35  A    between atoms: _76  and  _79
REMARK   36  A    between atoms: _79  and  _80
REMARK   37  A    between atoms: _83  and  _85
REMARK   38  A    between atoms: _85  and  _86
REMARK   39  A    between atoms: _85  and  _88
REMARK   40  A    between atoms: _88  and  _89
REMARK   41  A    between atoms: _92  and  _94
REMARK   42  A    between atoms: _94  and  _95
REMARK   43  A    between atoms: _94  and  _97
REMARK   44  A    between atoms: _100  and  _102
REMARK   45  A    between atoms: _102  and  _103
REMARK   46  A    between atoms: _102  and  _105
REMARK   47  A    between atoms: _105  and  _106
REMARK   48  A    between atoms: _106  and  _107
REMARK   49  A    between atoms: _107  and  _108
REMARK   50  A    between atoms: _108  and  _109
REMARK   51  A    between atoms: _113  and  _115
REMARK   52  A    between atoms: _115  and  _116
REMARK   53  A    between atoms: _115  and  _118
REMARK   54  A    between atoms: _118  and  _119
REMARK   55  A    between atoms: _119  and  _120
REMARK   56  A    between atoms: _122  and  _124
REMARK   57  A    between atoms: _124  and  _125
REMARK   58  A    between atoms: _124  and  _127
REMARK   59  A    between atoms: _127  and  _128
REMARK   60  A    between atoms: _131  and  _133
REMARK   61  A    between atoms: _133  and  _134
REMARK   62  A    between atoms: _136  and  _138
REMARK   63  A    between atoms: _138  and  _139
REMARK   64  A    between atoms: _141  and  _143
REMARK   65  A    between atoms: _143  and  _144
REMARK   66  A    between atoms: _143  and  _146
REMARK   67  A    between atoms: _146  and  _147
REMARK   68  A    between atoms: _150  and  _152
REMARK   69  A    between atoms: _152  and  _153
REMARK   70  A    between atoms: _155  and  _157
REMARK   71  A    between atoms: _157  and  _158
REMARK   72  A    between atoms: _160  and  _162
REMARK   73  A    between atoms: _162  and  _163
REMARK   74  A    between atoms: _162  and  _165
REMARK   75  A    between atoms: _165  and  _166
REMARK   76  A    between atoms: _172  and  _174
REMARK   77  A    between atoms: _174  and  _175
REMARK   78  A    between atoms: _174  and  _177
REMARK   79  A    between atoms: _177  and  _178
REMARK   80  A    between atoms: _181  and  _183
REMARK   81  A    between atoms: _183  and  _184
REMARK   82  A    between atoms: _183  and  _186
REMARK   83  A    between atoms: _189  and  _191
REMARK   84  A    between atoms: _191  and  _192
REMARK   85  A    between atoms: _191  and  _194
REMARK   86  A    between atoms: _194  and  _195
REMARK   87  A    between atoms: _199  and  _200
REMARK   88  A    between atoms: _205  and  _207
REMARK   89  A    between atoms: _207  and  _208
REMARK   90  A    between atoms: _207  and  _210
REMARK   91  A    between atoms: _210  and  _211
REMARK   92  A    between atoms: _215  and  _216
REMARK   93  A    between atoms: _221  and  _223
REMARK   94  A    between atoms: _223  and  _224
REMARK   95  A    between atoms: _223  and  _226
REMARK   96  A    between atoms: _229  and  _231
REMARK   97  A    between atoms: _231  and  _232
REMARK   98  A    between atoms: _231  and  _234
REMARK   99  A    between atoms: _234  and  _235
REMARK  100  A    between atoms: _240  and  _242
REMARK  101  A    between atoms: _242  and  _243
REMARK  102  A    between atoms: _242  and  _245
REMARK  103  A    between atoms: _245  and  _246
REMARK  104  A    between atoms: _249  and  _251
REMARK  105  A    between atoms: _251  and  _252
REMARK  106  A    between atoms: _251  and  _254
REMARK  107  A    between atoms: _254  and  _255
REMARK  108  A    between atoms: _258  and  _260
REMARK  109  A    between atoms: _260  and  _261
REMARK  110  A    between atoms: _263  and  _265
REMARK  111  A    between atoms: _265  and  _266
REMARK  112  A    between atoms: _265  and  _268
REMARK  113  A    between atoms: _268  and  _269
REMARK  114  A    between atoms: _269  and  _270
REMARK  115  A    between atoms: _270  and  _271
REMARK  116  A    between atoms: _280  and  _282
REMARK  117  A    between atoms: _282  and  _283
REMARK  118  A    between atoms: _282  and  _285
REMARK  119  A    between atoms: _285  and  _286
REMARK  120  A    between atoms: _291  and  _293
REMARK  121  A    between atoms: _293  and  _294
REMARK  122  A    between atoms: _293  and  _296
REMARK  123  A    between atoms: _296  and  _297
REMARK  124  A    between atoms: _297  and  _298
REMARK  125  A    between atoms: _298  and  _299
REMARK  126  A    between atoms: _308  and  _310
REMARK  127  A    between atoms: _310  and  _311
REMARK  128  A    between atoms: _310  and  _313
REMARK  129  A    between atoms: _313  and  _314
REMARK  130  A    between atoms: _317  and  _319
REMARK  131  A    between atoms: _319  and  _320
REMARK  132  A    between atoms: _319  and  _322
REMARK  133  A    between atoms: _322  and  _323
REMARK  134  A    between atoms: _326  and  _328
REMARK  135  A    between atoms: _328  and  _329
REMARK  136  A    between atoms: _328  and  _331
REMARK  137  A    between atoms: _331  and  _332
REMARK  138  A    between atoms: _335  and  _337
REMARK  139  A    between atoms: _337  and  _338
REMARK  140  A    between atoms: _337  and  _340
REMARK  141  A    between atoms: _340  and  _341
REMARK  142  A    between atoms: _344  and  _346
REMARK  143  A    between atoms: _346  and  _347
REMARK  144  A    between atoms: _349  and  _351
REMARK  145  A    between atoms: _351  and  _352
REMARK  146  A    between atoms: _355  and  _357
REMARK  147  A    between atoms: _357  and  _358
REMARK  148  A    between atoms: _357  and  _360
REMARK  149  A    between atoms: _360  and  _361
REMARK  150  A    between atoms: _364  and  _366
REMARK  151  A    between atoms: _366  and  _367
REMARK  152  A    between atoms: _366  and  _369
REMARK  153  A    between atoms: _369  and  _370
REMARK  154  A    between atoms: _373  and  _375
REMARK  155  A    between atoms: _375  and  _376
REMARK  156  A    between atoms: _375  and  _378
REMARK  157  A    between atoms: _378  and  _379
REMARK  158  A    between atoms: _382  and  _384
REMARK  159  A    between atoms: _384  and  _385
REMARK  160  A    between atoms: _384  and  _387
REMARK  161  A    between atoms: _390  and  _392
REMARK  162  A    between atoms: _392  and  _393
REMARK  163  A    between atoms: _392  and  _395
REMARK  164  A    between atoms: _395  and  _396
REMARK  165  A    between atoms: _396  and  _397
REMARK  166  A    between atoms: _397  and  _398
REMARK  167  A    between atoms: _398  and  _399
REMARK  168  A    between atoms: _403  and  _405
REMARK  169  A    between atoms: _405  and  _406
REMARK  170  A    between atoms: _405  and  _408
REMARK  171  A    between atoms: _408  and  _409
REMARK  172  A    between atoms: _409  and  _410
REMARK  173  A    between atoms: _412  and  _414
REMARK  174  A    between atoms: _414  and  _415
REMARK  175  A    between atoms: _414  and  _417
REMARK  176  A    between atoms: _417  and  _418
REMARK  177  A    between atoms: _421  and  _423
REMARK  178  A    between atoms: _423  and  _424
REMARK  179  A    between atoms: _426  and  _428
REMARK  180  A    between atoms: _428  and  _429
REMARK  181  A    between atoms: _431  and  _433
REMARK  182  A    between atoms: _433  and  _434
REMARK  183  A    between atoms: _433  and  _436
REMARK  184  A    between atoms: _436  and  _437
REMARK  185  A    between atoms: _440  and  _442
REMARK  186  A    between atoms: _442  and  _443
REMARK  187  A    between atoms: _445  and  _447
REMARK  188  A    between atoms: _447  and  _448
REMARK  189  A    between atoms: _450  and  _452
REMARK  190  A    between atoms: _452  and  _453
REMARK  191  A    between atoms: _452  and  _455
REMARK  192  A    between atoms: _455  and  _456
REMARK  193  A    between atoms: _462  and  _464
REMARK  194  A    between atoms: _464  and  _465
REMARK  195  A    between atoms: _464  and  _467
REMARK  196  A    between atoms: _467  and  _468
REMARK  197  A    between atoms: _471  and  _473
REMARK  198  A    between atoms: _473  and  _474
REMARK  199  A    between atoms: _473  and  _476
REMARK  200  A    between atoms: _476  and  _477
REMARK  201  A    between atoms: _480  and  _482
REMARK  202  A    between atoms: _482  and  _483
REMARK  203  A    between atoms: _482  and  _485
REMARK  204  A    between atoms: _485  and  _486
REMARK  205  A    between atoms: _490  and  _491
REMARK  206  A    between atoms: _496  and  _498
REMARK  207  A    between atoms: _498  and  _499
REMARK  208  A    between atoms: _498  and  _501
REMARK  209  A    between atoms: _504  and  _506
REMARK  210  A    between atoms: _506  and  _507
REMARK  211  A    between atoms: _506  and  _509
REMARK  212  A    between atoms: _509  and  _510
REMARK  213  A    between atoms: _515  and  _517
REMARK  214  A    between atoms: _517  and  _518
REMARK  215  A    between atoms: _517  and  _520
REMARK  216  A    between atoms: _520  and  _521
REMARK  217  A    between atoms: _524  and  _526
REMARK  218  A    between atoms: _526  and  _527
REMARK  219  A    between atoms: _526  and  _529
REMARK  220  A    between atoms: _529  and  _530
REMARK  221  A    between atoms: _533  and  _535
REMARK  222  A    between atoms: _535  and  _536
REMARK  223  A    between atoms: _538  and  _540
REMARK  224  A    between atoms: _540  and  _541
REMARK  225  A    between atoms: _540  and  _543
REMARK  226  A    between atoms: _543  and  _544
REMARK  227  A    between atoms: _544  and  _545
REMARK  228  A    between atoms: _545  and  _546
REMARK  229  A    between atoms: _555  and  _557
REMARK  230  A    between atoms: _557  and  _558
REMARK  231  A    between atoms: _557  and  _560
REMARK  232  A    between atoms: _560  and  _561
REMARK                            x       y       z     vdW  Elec       q    Type
REMARK                         _______ _______ _______ _____ _____    ______ ____
ROOT
ATOM      1  O   HOH     1       6.433  22.519  11.467  0.00  0.00    +0.000 OA
ENDROOT
TORSDOF 0
REMARK  Name = ../refined-set-2016/3djk/3djk_pocket.pdb
REMARK  232 active torsions:
REMARK  status: ('A' for Active; 'I' for Inactive)
REMARK    1  A    between atoms: _1  and  _3
REMARK    2  A    between atoms: _3  and  _4
REMARK    3  A    between atoms: _3  and  _6
REMARK    4  A    between atoms: _6  and  _7
REMARK    5  A    between atoms: _7  and  _8
REMARK    6  A    between atoms: _8  and  _9
REMARK    7  A    between atoms: _9  and  _11
REMARK    8  A    between atoms: _11  and  _15
REMARK    9  A    between atoms: _18  and  _20
REMARK   10  A    between atoms: _20  and  _21
REMARK   11  A    between atoms: _20  and  _23
REMARK   12  A    between atoms: _23  and  _24
REMARK   13  A    between atoms: _27  and  _29
REMARK   14  A    between atoms: _29  and  _30
REMARK   15  A    between atoms: _29  and  _32
REMARK   16  A    between atoms: _32  and  _33
REMARK   17  A    between atoms: _36  and  _38
REMARK   18  A    between atoms: _38  and  _39
REMARK   19  A    between atoms: _38  and  _41
REMARK   20  A    between atoms: _41  and  _42
REMARK   21  A    between atoms: _45  and  _47
REMARK   22  A    between atoms: _47  and  _48
REMARK   23  A    between atoms: _47  and  _50
REMARK   24  A    between atoms: _50  and  _51
REMARK   25  A    between atoms: _54  and  _56
REMARK   26  A    between atoms: _56  and  _57
REMARK   27  A    between atoms: _59  and  _61
REMARK   28  A    between atoms: _61  and  _62
REMARK   29  A    between atoms: _65  and  _67
REMARK   30  A    between atoms: _67  and  _68
REMARK   31  A    between atoms: _67  and  _70
REMARK   32  A    between atoms: _70  and  _71
REMARK   33  A    between atoms: _74  and  _76
REMARK   34  A    between atoms: _76  and  _77
REMARK   35  A    between atoms: _76  and  _79
REMARK   36  A    between atoms: _79  and  _80
REMARK   37  A    between atoms: _83  and  _85
REMARK   38  A    between atoms: _85  and  _86
REMARK   39  A    between atoms: _85  and  _88
REMARK   40  A    between atoms: _88  and  _89
REMARK   41  A    between atoms: _92  and  _94
REMARK   42  A    between atoms: _94  and  _95
REMARK   43  A    between atoms: _94  and  _97
REMARK   44  A    between atoms: _100  and  _102
REMARK   45  A    between atoms: _102  and  _103
REMARK   46  A    between atoms: _102  and  _105
REMARK   47  A    between atoms: _105  and  _106
REMARK   48  A    between atoms: _106  and  _107
REMARK   49  A    between atoms: _107  and  _108
REMARK   50  A    between atoms: _108  and  _109
REMARK   51  A    between atoms: _113  and  _115
REMARK   52  A    between atoms: _115  and  _116
REMARK   53  A    between atoms: _115  and  _118
REMARK   54  A    between atoms: _118  and  _119
REMARK   55  A    between atoms: _119  and  _120
REMARK   56  A    between atoms: _122  and  _124
REMARK   57  A    between atoms: _124  and  _125
REMARK   58  A    between atoms: _124  and  _127
REMARK   59  A    between atoms: _127  and  _128
REMARK   60  A    between atoms: _131  and  _133
REMARK   61  A    between atoms: _133  and  _134
REMARK   62  A    between atoms: _136  and  _138
REMARK   63  A    between atoms: _138  and  _139
REMARK   64  A    between atoms: _141  and  _143
REMARK   65  A    between atoms: _143  and  _144
REMARK   66  A    between atoms: _143  and  _146
REMARK   67  A    between atoms: _146  and  _147
REMARK   68  A    between atoms: _150  and  _152
REMARK   69  A    between atoms: _152  and  _153
REMARK   70  A    between atoms: _155  and  _157
REMARK   71  A    between atoms: _157  and  _158
REMARK   72  A    between atoms: _160  and  _162
REMARK   73  A    between atoms: _162  and  _163
REMARK   74  A    between atoms: _162  and  _165
REMARK   75  A    between atoms: _165  and  _166
REMARK   76  A    between atoms: _172  and  _174
REMARK   77  A    between atoms: _174  and  _175
REMARK   78  A    between atoms: _174  and  _177
REMARK   79  A    between atoms: _177  and  _178
REMARK   80  A    between atoms: _181  and  _183
REMARK   81  A    between atoms: _183  and  _184
REMARK   82  A    between atoms: _183  and  _186
REMARK   83  A    between atoms: _189  and  _191
REMARK   84  A    between atoms: _191  and  _192
REMARK   85  A    between atoms: _191  and  _194
REMARK   86  A    between atoms: _194  and  _195
REMARK   87  A    between atoms: _199  and  _200
REMARK   88  A    between atoms: _205  and  _207
REMARK   89  A    between atoms: _207  and  _208
REMARK   90  A    between atoms: _207  and  _210
REMARK   91  A    between atoms: _210  and  _211
REMARK   92  A    between atoms: _215  and  _216
REMARK   93  A    between atoms: _221  and  _223
REMARK   94  A    between atoms: _223  and  _224
REMARK   95  A    between atoms: _223  and  _226
REMARK   96  A    between atoms: _229  and  _231
REMARK   97  A    between atoms: _231  and  _232
REMARK   98  A    between atoms: _231  and  _234
REMARK   99  A    between atoms: _234  and  _235
REMARK  100  A    between atoms: _240  and  _242
REMARK  101  A    between atoms: _242  and  _243
REMARK  102  A    between atoms: _242  and  _245
REMARK  103  A    between atoms: _245  and  _246
REMARK  104  A    between atoms: _249  and  _251
REMARK  105  A    between atoms: _251  and  _252
REMARK  106  A    between atoms: _251  and  _254
REMARK  107  A    between atoms: _254  and  _255
REMARK  108  A    between atoms: _258  and  _260
REMARK  109  A    between atoms: _260  and  _261
REMARK  110  A    between atoms: _263  and  _265
REMARK  111  A    between atoms: _265  and  _266
REMARK  112  A    between atoms: _265  and  _268
REMARK  113  A    between atoms: _268  and  _269
REMARK  114  A    between atoms: _269  and  _270
REMARK  115  A    between atoms: _270  and  _271
REMARK  116  A    between atoms: _280  and  _282
REMARK  117  A    between atoms: _282  and  _283
REMARK  118  A    between atoms: _282  and  _285
REMARK  119  A    between atoms: _285  and  _286
REMARK  120  A    between atoms: _291  and  _293
REMARK  121  A    between atoms: _293  and  _294
REMARK  122  A    between atoms: _293  and  _296
REMARK  123  A    between atoms: _296  and  _297
REMARK  124  A    between atoms: _297  and  _298
REMARK  125  A    between atoms: _298  and  _299
REMARK  126  A    between atoms: _308  and  _310
REMARK  127  A    between atoms: _310  and  _311
REMARK  128  A    between atoms: _310  and  _313
REMARK  129  A    between atoms: _313  and  _314
REMARK  130  A    between atoms: _317  and  _319
REMARK  131  A    between atoms: _319  and  _320
REMARK  132  A    between atoms: _319  and  _322
REMARK  133  A    between atoms: _322  and  _323
REMARK  134  A    between atoms: _326  and  _328
REMARK  135  A    between atoms: _328  and  _329
REMARK  136  A    between atoms: _328  and  _331
REMARK  137  A    between atoms: _331  and  _332
REMARK  138  A    between atoms: _335  and  _337
REMARK  139  A    between atoms: _337  and  _338
REMARK  140  A    between atoms: _337  and  _340
REMARK  141  A    between atoms: _340  and  _341
REMARK  142  A    between atoms: _344  and  _346
REMARK  143  A    between atoms: _346  and  _347
REMARK  144  A    between atoms: _349  and  _351
REMARK  145  A    between atoms: _351  and  _352
REMARK  146  A    between atoms: _355  and  _357
REMARK  147  A    between atoms: _357  and  _358
REMARK  148  A    between atoms: _357  and  _360
REMARK  149  A    between atoms: _360  and  _361
REMARK  150  A    between atoms: _364  and  _366
REMARK  151  A    between atoms: _366  and  _367
REMARK  152  A    between atoms: _366  and  _369
REMARK  153  A    between atoms: _369  and  _370
REMARK  154  A    between atoms: _373  and  _375
REMARK  155  A    between atoms: _375  and  _376
REMARK  156  A    between atoms: _375  and  _378
REMARK  157  A    between atoms: _378  and  _379
REMARK  158  A    between atoms: _382  and  _384
REMARK  159  A    between atoms: _384  and  _385
REMARK  160  A    between atoms: _384  and  _387
REMARK  161  A    between atoms: _390  and  _392
REMARK  162  A    between atoms: _392  and  _393
REMARK  163  A    between atoms: _392  and  _395
REMARK  164  A    between atoms: _395  and  _396
REMARK  165  A    between atoms: _396  and  _397
REMARK  166  A    between atoms: _397  and  _398
REMARK  167  A    between atoms: _398  and  _399
REMARK  168  A    between atoms: _403  and  _405
REMARK  169  A    between atoms: _405  and  _406
REMARK  170  A    between atoms: _405  and  _408
REMARK  171  A    between atoms: _408  and  _409
REMARK  172  A    between atoms: _409  and  _410
REMARK  173  A    between atoms: _412  and  _414
REMARK  174  A    between atoms: _414  and  _415
REMARK  175  A    between atoms: _414  and  _417
REMARK  176  A    between atoms: _417  and  _418
REMARK  177  A    between atoms: _421  and  _423
REMARK  178  A    between atoms: _423  and  _424
REMARK  179  A    between atoms: _426  and  _428
REMARK  180  A    between atoms: _428  and  _429
REMARK  181  A    between atoms: _431  and  _433
REMARK  182  A    between atoms: _433  and  _434
REMARK  183  A    between atoms: _433  and  _436
REMARK  184  A    between atoms: _436  and  _437
REMARK  185  A    between atoms: _440  and  _442
REMARK  186  A    between atoms: _442  and  _443
REMARK  187  A    between atoms: _445  and  _447
REMARK  188  A    between atoms: _447  and  _448
REMARK  189  A    between atoms: _450  and  _452
REMARK  190  A    between atoms: _452  and  _453
REMARK  191  A    between atoms: _452  and  _455
REMARK  192  A    between atoms: _455  and  _456
REMARK  193  A    between atoms: _462  and  _464
REMARK  194  A    between atoms: _464  and  _465
REMARK  195  A    between atoms: _464  and  _467
REMARK  196  A    between atoms: _467  and  _468
REMARK  197  A    between atoms: _471  and  _473
REMARK  198  A    between atoms: _473  and  _474
REMARK  199  A    between atoms: _473  and  _476
REMARK  200  A    between atoms: _476  and  _477
REMARK  201  A    between atoms: _480  and  _482
REMARK  202  A    between atoms: _482  and  _483
REMARK  203  A    between atoms: _482  and  _485
REMARK  204  A    between atoms: _485  and  _486
REMARK  205  A    between atoms: _490  and  _491
REMARK  206  A    between atoms: _496  and  _498
REMARK  207  A    between atoms: _498  and  _499
REMARK  208  A    between atoms: _498  and  _501
REMARK  209  A    between atoms: _504  and  _506
REMARK  210  A    between atoms: _506  and  _507
REMARK  211  A    between atoms: _506  and  _509
REMARK  212  A    between atoms: _509  and  _510
REMARK  213  A    between atoms: _515  and  _517
REMARK  214  A    between atoms: _517  and  _518
REMARK  215  A    between atoms: _517  and  _520
REMARK  216  A    between atoms: _520  and  _521
REMARK  217  A    between atoms: _524  and  _526
REMARK  218  A    between atoms: _526  and  _527
REMARK  219  A    between atoms: _526  and  _529
REMARK  220  A    between atoms: _529  and  _530
REMARK  221  A    between atoms: _533  and  _535
REMARK  222  A    between atoms: _535  and  _536
REMARK  223  A    between atoms: _538  and  _540
REMARK  224  A    between atoms: _540  and  _541
REMARK  225  A    between atoms: _540  and  _543
REMARK  226  A    between atoms: _543  and  _544
REMARK  227  A    between atoms: _544  and  _545
REMARK  228  A    between atoms: _545  and  _546
REMARK  229  A    between atoms: _555  and  _557
REMARK  230  A    between atoms: _557  and  _558
REMARK  231  A    between atoms: _557  and  _560
REMARK  232  A    between atoms: _560  and  _561
REMARK                            x       y       z     vdW  Elec       q    Type
REMARK                         _______ _______ _______ _____ _____    ______ ____
ROOT
ATOM      1  O   HOH     1      25.168  33.775  11.411  0.00  0.00    +0.000 OA
ENDROOT
TORSDOF 0
REMARK  Name = ../refined-set-2016/3djk/3djk_pocket.pdb
REMARK  232 active torsions:
REMARK  status: ('A' for Active; 'I' for Inactive)
REMARK    1  A    between atoms: _1  and  _3
REMARK    2  A    between atoms: _3  and  _4
REMARK    3  A    between atoms: _3  and  _6
REMARK    4  A    between atoms: _6  and  _7
REMARK    5  A    between atoms: _7  and  _8
REMARK    6  A    between atoms: _8  and  _9
REMARK    7  A    between atoms: _9  and  _11
REMARK    8  A    between atoms: _11  and  _15
REMARK    9  A    between atoms: _18  and  _20
REMARK   10  A    between atoms: _20  and  _21
REMARK   11  A    between atoms: _20  and  _23
REMARK   12  A    between atoms: _23  and  _24
REMARK   13  A    between atoms: _27  and  _29
REMARK   14  A    between atoms: _29  and  _30
REMARK   15  A    between atoms: _29  and  _32
REMARK   16  A    between atoms: _32  and  _33
REMARK   17  A    between atoms: _36  and  _38
REMARK   18  A    between atoms: _38  and  _39
REMARK   19  A    between atoms: _38  and  _41
REMARK   20  A    between atoms: _41  and  _42
REMARK   21  A    between atoms: _45  and  _47
REMARK   22  A    between atoms: _47  and  _48
REMARK   23  A    between atoms: _47  and  _50
REMARK   24  A    between atoms: _50  and  _51
REMARK   25  A    between atoms: _54  and  _56
REMARK   26  A    between atoms: _56  and  _57
REMARK   27  A    between atoms: _59  and  _61
REMARK   28  A    between atoms: _61  and  _62
REMARK   29  A    between atoms: _65  and  _67
REMARK   30  A    between atoms: _67  and  _68
REMARK   31  A    between atoms: _67  and  _70
REMARK   32  A    between atoms: _70  and  _71
REMARK   33  A    between atoms: _74  and  _76
REMARK   34  A    between atoms: _76  and  _77
REMARK   35  A    between atoms: _76  and  _79
REMARK   36  A    between atoms: _79  and  _80
REMARK   37  A    between atoms: _83  and  _85
REMARK   38  A    between atoms: _85  and  _86
REMARK   39  A    between atoms: _85  and  _88
REMARK   40  A    between atoms: _88  and  _89
REMARK   41  A    between atoms: _92  and  _94
REMARK   42  A    between atoms: _94  and  _95
REMARK   43  A    between atoms: _94  and  _97
REMARK   44  A    between atoms: _100  and  _102
REMARK   45  A    between atoms: _102  and  _103
REMARK   46  A    between atoms: _102  and  _105
REMARK   47  A    between atoms: _105  and  _106
REMARK   48  A    between atoms: _106  and  _107
REMARK   49  A    between atoms: _107  and  _108
REMARK   50  A    between atoms: _108  and  _109
REMARK   51  A    between atoms: _113  and  _115
REMARK   52  A    between atoms: _115  and  _116
REMARK   53  A    between atoms: _115  and  _118
REMARK   54  A    between atoms: _118  and  _119
REMARK   55  A    between atoms: _119  and  _120
REMARK   56  A    between atoms: _122  and  _124
REMARK   57  A    between atoms: _124  and  _125
REMARK   58  A    between atoms: _124  and  _127
REMARK   59  A    between atoms: _127  and  _128
REMARK   60  A    between atoms: _131  and  _133
REMARK   61  A    between atoms: _133  and  _134
REMARK   62  A    between atoms: _136  and  _138
REMARK   63  A    between atoms: _138  and  _139
REMARK   64  A    between atoms: _141  and  _143
REMARK   65  A    between atoms: _143  and  _144
REMARK   66  A    between atoms: _143  and  _146
REMARK   67  A    between atoms: _146  and  _147
REMARK   68  A    between atoms: _150  and  _152
REMARK   69  A    between atoms: _152  and  _153
REMARK   70  A    between atoms: _155  and  _157
REMARK   71  A    between atoms: _157  and  _158
REMARK   72  A    between atoms: _160  and  _162
REMARK   73  A    between atoms: _162  and  _163
REMARK   74  A    between atoms: _162  and  _165
REMARK   75  A    between atoms: _165  and  _166
REMARK   76  A    between atoms: _172  and  _174
REMARK   77  A    between atoms: _174  and  _175
REMARK   78  A    between atoms: _174  and  _177
REMARK   79  A    between atoms: _177  and  _178
REMARK   80  A    between atoms: _181  and  _183
REMARK   81  A    between atoms: _183  and  _184
REMARK   82  A    between atoms: _183  and  _186
REMARK   83  A    between atoms: _189  and  _191
REMARK   84  A    between atoms: _191  and  _192
REMARK   85  A    between atoms: _191  and  _194
REMARK   86  A    between atoms: _194  and  _195
REMARK   87  A    between atoms: _199  and  _200
REMARK   88  A    between atoms: _205  and  _207
REMARK   89  A    between atoms: _207  and  _208
REMARK   90  A    between atoms: _207  and  _210
REMARK   91  A    between atoms: _210  and  _211
REMARK   92  A    between atoms: _215  and  _216
REMARK   93  A    between atoms: _221  and  _223
REMARK   94  A    between atoms: _223  and  _224
REMARK   95  A    between atoms: _223  and  _226
REMARK   96  A    between atoms: _229  and  _231
REMARK   97  A    between atoms: _231  and  _232
REMARK   98  A    between atoms: _231  and  _234
REMARK   99  A    between atoms: _234  and  _235
REMARK  100  A    between atoms: _240  and  _242
REMARK  101  A    between atoms: _242  and  _243
REMARK  102  A    between atoms: _242  and  _245
REMARK  103  A    between atoms: _245  and  _246
REMARK  104  A    between atoms: _249  and  _251
REMARK  105  A    between atoms: _251  and  _252
REMARK  106  A    between atoms: _251  and  _254
REMARK  107  A    between atoms: _254  and  _255
REMARK  108  A    between atoms: _258  and  _260
REMARK  109  A    between atoms: _260  and  _261
REMARK  110  A    between atoms: _263  and  _265
REMARK  111  A    between atoms: _265  and  _266
REMARK  112  A    between atoms: _265  and  _268
REMARK  113  A    between atoms: _268  and  _269
REMARK  114  A    between atoms: _269  and  _270
REMARK  115  A    between atoms: _270  and  _271
REMARK  116  A    between atoms: _280  and  _282
REMARK  117  A    between atoms: _282  and  _283
REMARK  118  A    between atoms: _282  and  _285
REMARK  119  A    between atoms: _285  and  _286
REMARK  120  A    between atoms: _291  and  _293
REMARK  121  A    between atoms: _293  and  _294
REMARK  122  A    between atoms: _293  and  _296
REMARK  123  A    between atoms: _296  and  _297
REMARK  124  A    between atoms: _297  and  _298
REMARK  125  A    between atoms: _298  and  _299
REMARK  126  A    between atoms: _308  and  _310
REMARK  127  A    between atoms: _310  and  _311
REMARK  128  A    between atoms: _310  and  _313
REMARK  129  A    between atoms: _313  and  _314
REMARK  130  A    between atoms: _317  and  _319
REMARK  131  A    between atoms: _319  and  _320
REMARK  132  A    between atoms: _319  and  _322
REMARK  133  A    between atoms: _322  and  _323
REMARK  134  A    between atoms: _326  and  _328
REMARK  135  A    between atoms: _328  and  _329
REMARK  136  A    between atoms: _328  and  _331
REMARK  137  A    between atoms: _331  and  _332
REMARK  138  A    between atoms: _335  and  _337
REMARK  139  A    between atoms: _337  and  _338
REMARK  140  A    between atoms: _337  and  _340
REMARK  141  A    between atoms: _340  and  _341
REMARK  142  A    between atoms: _344  and  _346
REMARK  143  A    between atoms: _346  and  _347
REMARK  144  A    between atoms: _349  and  _351
REMARK  145  A    between atoms: _351  and  _352
REMARK  146  A    between atoms: _355  and  _357
REMARK  147  A    between atoms: _357  and  _358
REMARK  148  A    between atoms: _357  and  _360
REMARK  149  A    between atoms: _360  and  _361
REMARK  150  A    between atoms: _364  and  _366
REMARK  151  A    between atoms: _366  and  _367
REMARK  152  A    between atoms: _366  and  _369
REMARK  153  A    between atoms: _369  and  _370
REMARK  154  A    between atoms: _373  and  _375
REMARK  155  A    between atoms: _375  and  _376
REMARK  156  A    between atoms: _375  and  _378
REMARK  157  A    between atoms: _378  and  _379
REMARK  158  A    between atoms: _382  and  _384
REMARK  159  A    between atoms: _384  and  _385
REMARK  160  A    between atoms: _384  and  _387
REMARK  161  A    between atoms: _390  and  _392
REMARK  162  A    between atoms: _392  and  _393
REMARK  163  A    between atoms: _392  and  _395
REMARK  164  A    between atoms: _395  and  _396
REMARK  165  A    between atoms: _396  and  _397
REMARK  166  A    between atoms: _397  and  _398
REMARK  167  A    between atoms: _398  and  _399
REMARK  168  A    between atoms: _403  and  _405
REMARK  169  A    between atoms: _405  and  _406
REMARK  170  A    between atoms: _405  and  _408
REMARK  171  A    between atoms: _408  and  _409
REMARK  172  A    between atoms: _409  and  _410
REMARK  173  A    between atoms: _412  and  _414
REMARK  174  A    between atoms: _414  and  _415
REMARK  175  A    between atoms: _414  and  _417
REMARK  176  A    between atoms: _417  and  _418
REMARK  177  A    between atoms: _421  and  _423
REMARK  178  A    between atoms: _423  and  _424
REMARK  179  A    between atoms: _426  and  _428
REMARK  180  A    between atoms: _428  and  _429
REMARK  181  A    between atoms: _431  and  _433
REMARK  182  A    between atoms: _433  and  _434
REMARK  183  A    between atoms: _433  and  _436
REMARK  184  A    between atoms: _436  and  _437
REMARK  185  A    between atoms: _440  and  _442
REMARK  186  A    between atoms: _442  and  _443
REMARK  187  A    between atoms: _445  and  _447
REMARK  188  A    between atoms: _447  and  _448
REMARK  189  A    between atoms: _450  and  _452
REMARK  190  A    between atoms: _452  and  _453
REMARK  191  A    between atoms: _452  and  _455
REMARK  192  A    between atoms: _455  and  _456
REMARK  193  A    between atoms: _462  and  _464
REMARK  194  A    between atoms: _464  and  _465
REMARK  195  A    between atoms: _464  and  _467
REMARK  196  A    between atoms: _467  and  _468
REMARK  197  A    between atoms: _471  and  _473
REMARK  198  A    between atoms: _473  and  _474
REMARK  199  A    between atoms: _473  and  _476
REMARK  200  A    between atoms: _476  and  _477
REMARK  201  A    between atoms: _480  and  _482
REMARK  202  A    between atoms: _482  and  _483
REMARK  203  A    between atoms: _482  and  _485
REMARK  204  A    between atoms: _485  and  _486
REMARK  205  A    between atoms: _490  and  _491
REMARK  206  A    between atoms: _496  and  _498
REMARK  207  A    between atoms: _498  and  _499
REMARK  208  A    between atoms: _498  and  _501
REMARK  209  A    between atoms: _504  and  _506
REMARK  210  A    between atoms: _506  and  _507
REMARK  211  A    between atoms: _506  and  _509
REMARK  212  A    between atoms: _509  and  _510
REMARK  213  A    between atoms: _515  and  _517
REMARK  214  A    between atoms: _517  and  _518
REMARK  215  A    between atoms: _517  and  _520
REMARK  216  A    between atoms: _520  and  _521
REMARK  217  A    between atoms: _524  and  _526
REMARK  218  A    between atoms: _526  and  _527
REMARK  219  A    between atoms: _526  and  _529
REMARK  220  A    between atoms: _529  and  _530
REMARK  221  A    between atoms: _533  and  _535
REMARK  222  A    between atoms: _535  and  _536
REMARK  223  A    between atoms: _538  and  _540
REMARK  224  A    between atoms: _540  and  _541
REMARK  225  A    between atoms: _540  and  _543
REMARK  226  A    between atoms: _543  and  _544
REMARK  227  A    between atoms: _544  and  _545
REMARK  228  A    between atoms: _545  and  _546
REMARK  229  A    between atoms: _555  and  _557
REMARK  230  A    between atoms: _557  and  _558
REMARK  231  A    between atoms: _557  and  _560
REMARK  232  A    between atoms: _560  and  _561
REMARK                            x       y       z     vdW  Elec       q    Type
REMARK                         _______ _______ _______ _____ _____    ______ ____
ROOT
ATOM      1  O   HOH     1      28.048  33.766  11.333  0.00  0.00    +0.000 OA
ENDROOT
TORSDOF 0
REMARK  Name = ../refined-set-2016/3djk/3djk_pocket.pdb
REMARK  232 active torsions:
REMARK  status: ('A' for Active; 'I' for Inactive)
REMARK    1  A    between atoms: _1  and  _3
REMARK    2  A    between atoms: _3  and  _4
REMARK    3  A    between atoms: _3  and  _6
REMARK    4  A    between atoms: _6  and  _7
REMARK    5  A    between atoms: _7  and  _8
REMARK    6  A    between atoms: _8  and  _9
REMARK    7  A    between atoms: _9  and  _11
REMARK    8  A    between atoms: _11  and  _15
REMARK    9  A    between atoms: _18  and  _20
REMARK   10  A    between atoms: _20  and  _21
REMARK   11  A    between atoms: _20  and  _23
REMARK   12  A    between atoms: _23  and  _24
REMARK   13  A    between atoms: _27  and  _29
REMARK   14  A    between atoms: _29  and  _30
REMARK   15  A    between atoms: _29  and  _32
REMARK   16  A    between atoms: _32  and  _33
REMARK   17  A    between atoms: _36  and  _38
REMARK   18  A    between atoms: _38  and  _39
REMARK   19  A    between atoms: _38  and  _41
REMARK   20  A    between atoms: _41  and  _42
REMARK   21  A    between atoms: _45  and  _47
REMARK   22  A    between atoms: _47  and  _48
REMARK   23  A    between atoms: _47  and  _50
REMARK   24  A    between atoms: _50  and  _51
REMARK   25  A    between atoms: _54  and  _56
REMARK   26  A    between atoms: _56  and  _57
REMARK   27  A    between atoms: _59  and  _61
REMARK   28  A    between atoms: _61  and  _62
REMARK   29  A    between atoms: _65  and  _67
REMARK   30  A    between atoms: _67  and  _68
REMARK   31  A    between atoms: _67  and  _70
REMARK   32  A    between atoms: _70  and  _71
REMARK   33  A    between atoms: _74  and  _76
REMARK   34  A    between atoms: _76  and  _77
REMARK   35  A    between atoms: _76  and  _79
REMARK   36  A    between atoms: _79  and  _80
REMARK   37  A    between atoms: _83  and  _85
REMARK   38  A    between atoms: _85  and  _86
REMARK   39  A    between atoms: _85  and  _88
REMARK   40  A    between atoms: _88  and  _89
REMARK   41  A    between atoms: _92  and  _94
REMARK   42  A    between atoms: _94  and  _95
REMARK   43  A    between atoms: _94  and  _97
REMARK   44  A    between atoms: _100  and  _102
REMARK   45  A    between atoms: _102  and  _103
REMARK   46  A    between atoms: _102  and  _105
REMARK   47  A    between atoms: _105  and  _106
REMARK   48  A    between atoms: _106  and  _107
REMARK   49  A    between atoms: _107  and  _108
REMARK   50  A    between atoms: _108  and  _109
REMARK   51  A    between atoms: _113  and  _115
REMARK   52  A    between atoms: _115  and  _116
REMARK   53  A    between atoms: _115  and  _118
REMARK   54  A    between atoms: _118  and  _119
REMARK   55  A    between atoms: _119  and  _120
REMARK   56  A    between atoms: _122  and  _124
REMARK   57  A    between atoms: _124  and  _125
REMARK   58  A    between atoms: _124  and  _127
REMARK   59  A    between atoms: _127  and  _128
REMARK   60  A    between atoms: _131  and  _133
REMARK   61  A    between atoms: _133  and  _134
REMARK   62  A    between atoms: _136  and  _138
REMARK   63  A    between atoms: _138  and  _139
REMARK   64  A    between atoms: _141  and  _143
REMARK   65  A    between atoms: _143  and  _144
REMARK   66  A    between atoms: _143  and  _146
REMARK   67  A    between atoms: _146  and  _147
REMARK   68  A    between atoms: _150  and  _152
REMARK   69  A    between atoms: _152  and  _153
REMARK   70  A    between atoms: _155  and  _157
REMARK   71  A    between atoms: _157  and  _158
REMARK   72  A    between atoms: _160  and  _162
REMARK   73  A    between atoms: _162  and  _163
REMARK   74  A    between atoms: _162  and  _165
REMARK   75  A    between atoms: _165  and  _166
REMARK   76  A    between atoms: _172  and  _174
REMARK   77  A    between atoms: _174  and  _175
REMARK   78  A    between atoms: _174  and  _177
REMARK   79  A    between atoms: _177  and  _178
REMARK   80  A    between atoms: _181  and  _183
REMARK   81  A    between atoms: _183  and  _184
REMARK   82  A    between atoms: _183  and  _186
REMARK   83  A    between atoms: _189  and  _191
REMARK   84  A    between atoms: _191  and  _192
REMARK   85  A    between atoms: _191  and  _194
REMARK   86  A    between atoms: _194  and  _195
REMARK   87  A    between atoms: _199  and  _200
REMARK   88  A    between atoms: _205  and  _207
REMARK   89  A    between atoms: _207  and  _208
REMARK   90  A    between atoms: _207  and  _210
REMARK   91  A    between atoms: _210  and  _211
REMARK   92  A    between atoms: _215  and  _216
REMARK   93  A    between atoms: _221  and  _223
REMARK   94  A    between atoms: _223  and  _224
REMARK   95  A    between atoms: _223  and  _226
REMARK   96  A    between atoms: _229  and  _231
REMARK   97  A    between atoms: _231  and  _232
REMARK   98  A    between atoms: _231  and  _234
REMARK   99  A    between atoms: _234  and  _235
REMARK  100  A    between atoms: _240  and  _242
REMARK  101  A    between atoms: _242  and  _243
REMARK  102  A    between atoms: _242  and  _245
REMARK  103  A    between atoms: _245  and  _246
REMARK  104  A    between atoms: _249  and  _251
REMARK  105  A    between atoms: _251  and  _252
REMARK  106  A    between atoms: _251  and  _254
REMARK  107  A    between atoms: _254  and  _255
REMARK  108  A    between atoms: _258  and  _260
REMARK  109  A    between atoms: _260  and  _261
REMARK  110  A    between atoms: _263  and  _265
REMARK  111  A    between atoms: _265  and  _266
REMARK  112  A    between atoms: _265  and  _268
REMARK  113  A    between atoms: _268  and  _269
REMARK  114  A    between atoms: _269  and  _270
REMARK  115  A    between atoms: _270  and  _271
REMARK  116  A    between atoms: _280  and  _282
REMARK  117  A    between atoms: _282  and  _283
REMARK  118  A    between atoms: _282  and  _285
REMARK  119  A    between atoms: _285  and  _286
REMARK  120  A    between atoms: _291  and  _293
REMARK  121  A    between atoms: _293  and  _294
REMARK  122  A    between atoms: _293  and  _296
REMARK  123  A    between atoms: _296  and  _297
REMARK  124  A    between atoms: _297  and  _298
REMARK  125  A    between atoms: _298  and  _299
REMARK  126  A    between atoms: _308  and  _310
REMARK  127  A    between atoms: _310  and  _311
REMARK  128  A    between atoms: _310  and  _313
REMARK  129  A    between atoms: _313  and  _314
REMARK  130  A    between atoms: _317  and  _319
REMARK  131  A    between atoms: _319  and  _320
REMARK  132  A    between atoms: _319  and  _322
REMARK  133  A    between atoms: _322  and  _323
REMARK  134  A    between atoms: _326  and  _328
REMARK  135  A    between atoms: _328  and  _329
REMARK  136  A    between atoms: _328  and  _331
REMARK  137  A    between atoms: _331  and  _332
REMARK  138  A    between atoms: _335  and  _337
REMARK  139  A    between atoms: _337  and  _338
REMARK  140  A    between atoms: _337  and  _340
REMARK  141  A    between atoms: _340  and  _341
REMARK  142  A    between atoms: _344  and  _346
REMARK  143  A    between atoms: _346  and  _347
REMARK  144  A    between atoms: _349  and  _351
REMARK  145  A    between atoms: _351  and  _352
REMARK  146  A    between atoms: _355  and  _357
REMARK  147  A    between atoms: _357  and  _358
REMARK  148  A    between atoms: _357  and  _360
REMARK  149  A    between atoms: _360  and  _361
REMARK  150  A    between atoms: _364  and  _366
REMARK  151  A    between atoms: _366  and  _367
REMARK  152  A    between atoms: _366  and  _369
REMARK  153  A    between atoms: _369  and  _370
REMARK  154  A    between atoms: _373  and  _375
REMARK  155  A    between atoms: _375  and  _376
REMARK  156  A    between atoms: _375  and  _378
REMARK  157  A    between atoms: _378  and  _379
REMARK  158  A    between atoms: _382  and  _384
REMARK  159  A    between atoms: _384  and  _385
REMARK  160  A    between atoms: _384  and  _387
REMARK  161  A    between atoms: _390  and  _392
REMARK  162  A    between atoms: _392  and  _393
REMARK  163  A    between atoms: _392  and  _395
REMARK  164  A    between atoms: _395  and  _396
REMARK  165  A    between atoms: _396  and  _397
REMARK  166  A    between atoms: _397  and  _398
REMARK  167  A    between atoms: _398  and  _399
REMARK  168  A    between atoms: _403  and  _405
REMARK  169  A    between atoms: _405  and  _406
REMARK  170  A    between atoms: _405  and  _408
REMARK  171  A    between atoms: _408  and  _409
REMARK  172  A    between atoms: _409  and  _410
REMARK  173  A    between atoms: _412  and  _414
REMARK  174  A    between atoms: _414  and  _415
REMARK  175  A    between atoms: _414  and  _417
REMARK  176  A    between atoms: _417  and  _418
REMARK  177  A    between atoms: _421  and  _423
REMARK  178  A    between atoms: _423  and  _424
REMARK  179  A    between atoms: _426  and  _428
REMARK  180  A    between atoms: _428  and  _429
REMARK  181  A    between atoms: _431  and  _433
REMARK  182  A    between atoms: _433  and  _434
REMARK  183  A    between atoms: _433  and  _436
REMARK  184  A    between atoms: _436  and  _437
REMARK  185  A    between atoms: _440  and  _442
REMARK  186  A    between atoms: _442  and  _443
REMARK  187  A    between atoms: _445  and  _447
REMARK  188  A    between atoms: _447  and  _448
REMARK  189  A    between atoms: _450  and  _452
REMARK  190  A    between atoms: _452  and  _453
REMARK  191  A    between atoms: _452  and  _455
REMARK  192  A    between atoms: _455  and  _456
REMARK  193  A    between atoms: _462  and  _464
REMARK  194  A    between atoms: _464  and  _465
REMARK  195  A    between atoms: _464  and  _467
REMARK  196  A    between atoms: _467  and  _468
REMARK  197  A    between atoms: _471  and  _473
REMARK  198  A    between atoms: _473  and  _474
REMARK  199  A    between atoms: _473  and  _476
REMARK  200  A    between atoms: _476  and  _477
REMARK  201  A    between atoms: _480  and  _482
REMARK  202  A    between atoms: _482  and  _483
REMARK  203  A    between atoms: _482  and  _485
REMARK  204  A    between atoms: _485  and  _486
REMARK  205  A    between atoms: _490  and  _491
REMARK  206  A    between atoms: _496  and  _498
REMARK  207  A    between atoms: _498  and  _499
REMARK  208  A    between atoms: _498  and  _501
REMARK  209  A    between atoms: _504  and  _506
REMARK  210  A    between atoms: _506  and  _507
REMARK  211  A    between atoms: _506  and  _509
REMARK  212  A    between atoms: _509  and  _510
REMARK  213  A    between atoms: _515  and  _517
REMARK  214  A    between atoms: _517  and  _518
REMARK  215  A    between atoms: _517  and  _520
REMARK  216  A    between atoms: _520  and  _521
REMARK  217  A    between atoms: _524  and  _526
REMARK  218  A    between atoms: _526  and  _527
REMARK  219  A    between atoms: _526  and  _529
REMARK  220  A    between atoms: _529  and  _530
REMARK  221  A    between atoms: _533  and  _535
REMARK  222  A    between atoms: _535  and  _536
REMARK  223  A    between atoms: _538  and  _540
REMARK  224  A    between atoms: _540  and  _541
REMARK  225  A    between atoms: _540  and  _543
REMARK  226  A    between atoms: _543  and  _544
REMARK  227  A    between atoms: _544  and  _545
REMARK  228  A    between atoms: _545  and  _546
REMARK  229  A    between atoms: _555  and  _557
REMARK  230  A    between atoms: _557  and  _558
REMARK  231  A    between atoms: _557  and  _560
REMARK  232  A    between atoms: _560  and  _561
REMARK                            x       y       z     vdW  Elec       q    Type
REMARK                         _______ _______ _______ _____ _____    ______ ____
ROOT
ATOM      1  O   HOH     1      22.778  34.538  11.822  0.00  0.00    +0.000 OA
ENDROOT
TORSDOF 0
REMARK  Name = ../refined-set-2016/3djk/3djk_pocket.pdb
REMARK  232 active torsions:
REMARK  status: ('A' for Active; 'I' for Inactive)
REMARK    1  A    between atoms: _1  and  _3
REMARK    2  A    between atoms: _3  and  _4
REMARK    3  A    between atoms: _3  and  _6
REMARK    4  A    between atoms: _6  and  _7
REMARK    5  A    between atoms: _7  and  _8
REMARK    6  A    between atoms: _8  and  _9
REMARK    7  A    between atoms: _9  and  _11
REMARK    8  A    between atoms: _11  and  _15
REMARK    9  A    between atoms: _18  and  _20
REMARK   10  A    between atoms: _20  and  _21
REMARK   11  A    between atoms: _20  and  _23
REMARK   12  A    between atoms: _23  and  _24
REMARK   13  A    between atoms: _27  and  _29
REMARK   14  A    between atoms: _29  and  _30
REMARK   15  A    between atoms: _29  and  _32
REMARK   16  A    between atoms: _32  and  _33
REMARK   17  A    between atoms: _36  and  _38
REMARK   18  A    between atoms: _38  and  _39
REMARK   19  A    between atoms: _38  and  _41
REMARK   20  A    between atoms: _41  and  _42
REMARK   21  A    between atoms: _45  and  _47
REMARK   22  A    between atoms: _47  and  _48
REMARK   23  A    between atoms: _47  and  _50
REMARK   24  A    between atoms: _50  and  _51
REMARK   25  A    between atoms: _54  and  _56
REMARK   26  A    between atoms: _56  and  _57
REMARK   27  A    between atoms: _59  and  _61
REMARK   28  A    between atoms: _61  and  _62
REMARK   29  A    between atoms: _65  and  _67
REMARK   30  A    between atoms: _67  and  _68
REMARK   31  A    between atoms: _67  and  _70
REMARK   32  A    between atoms: _70  and  _71
REMARK   33  A    between atoms: _74  and  _76
REMARK   34  A    between atoms: _76  and  _77
REMARK   35  A    between atoms: _76  and  _79
REMARK   36  A    between atoms: _79  and  _80
REMARK   37  A    between atoms: _83  and  _85
REMARK   38  A    between atoms: _85  and  _86
REMARK   39  A    between atoms: _85  and  _88
REMARK   40  A    between atoms: _88  and  _89
REMARK   41  A    between atoms: _92  and  _94
REMARK   42  A    between atoms: _94  and  _95
REMARK   43  A    between atoms: _94  and  _97
REMARK   44  A    between atoms: _100  and  _102
REMARK   45  A    between atoms: _102  and  _103
REMARK   46  A    between atoms: _102  and  _105
REMARK   47  A    between atoms: _105  and  _106
REMARK   48  A    between atoms: _106  and  _107
REMARK   49  A    between atoms: _107  and  _108
REMARK   50  A    between atoms: _108  and  _109
REMARK   51  A    between atoms: _113  and  _115
REMARK   52  A    between atoms: _115  and  _116
REMARK   53  A    between atoms: _115  and  _118
REMARK   54  A    between atoms: _118  and  _119
REMARK   55  A    between atoms: _119  and  _120
REMARK   56  A    between atoms: _122  and  _124
REMARK   57  A    between atoms: _124  and  _125
REMARK   58  A    between atoms: _124  and  _127
REMARK   59  A    between atoms: _127  and  _128
REMARK   60  A    between atoms: _131  and  _133
REMARK   61  A    between atoms: _133  and  _134
REMARK   62  A    between atoms: _136  and  _138
REMARK   63  A    between atoms: _138  and  _139
REMARK   64  A    between atoms: _141  and  _143
REMARK   65  A    between atoms: _143  and  _144
REMARK   66  A    between atoms: _143  and  _146
REMARK   67  A    between atoms: _146  and  _147
REMARK   68  A    between atoms: _150  and  _152
REMARK   69  A    between atoms: _152  and  _153
REMARK   70  A    between atoms: _155  and  _157
REMARK   71  A    between atoms: _157  and  _158
REMARK   72  A    between atoms: _160  and  _162
REMARK   73  A    between atoms: _162  and  _163
REMARK   74  A    between atoms: _162  and  _165
REMARK   75  A    between atoms: _165  and  _166
REMARK   76  A    between atoms: _172  and  _174
REMARK   77  A    between atoms: _174  and  _175
REMARK   78  A    between atoms: _174  and  _177
REMARK   79  A    between atoms: _177  and  _178
REMARK   80  A    between atoms: _181  and  _183
REMARK   81  A    between atoms: _183  and  _184
REMARK   82  A    between atoms: _183  and  _186
REMARK   83  A    between atoms: _189  and  _191
REMARK   84  A    between atoms: _191  and  _192
REMARK   85  A    between atoms: _191  and  _194
REMARK   86  A    between atoms: _194  and  _195
REMARK   87  A    between atoms: _199  and  _200
REMARK   88  A    between atoms: _205  and  _207
REMARK   89  A    between atoms: _207  and  _208
REMARK   90  A    between atoms: _207  and  _210
REMARK   91  A    between atoms: _210  and  _211
REMARK   92  A    between atoms: _215  and  _216
REMARK   93  A    between atoms: _221  and  _223
REMARK   94  A    between atoms: _223  and  _224
REMARK   95  A    between atoms: _223  and  _226
REMARK   96  A    between atoms: _229  and  _231
REMARK   97  A    between atoms: _231  and  _232
REMARK   98  A    between atoms: _231  and  _234
REMARK   99  A    between atoms: _234  and  _235
REMARK  100  A    between atoms: _240  and  _242
REMARK  101  A    between atoms: _242  and  _243
REMARK  102  A    between atoms: _242  and  _245
REMARK  103  A    between atoms: _245  and  _246
REMARK  104  A    between atoms: _249  and  _251
REMARK  105  A    between atoms: _251  and  _252
REMARK  106  A    between atoms: _251  and  _254
REMARK  107  A    between atoms: _254  and  _255
REMARK  108  A    between atoms: _258  and  _260
REMARK  109  A    between atoms: _260  and  _261
REMARK  110  A    between atoms: _263  and  _265
REMARK  111  A    between atoms: _265  and  _266
REMARK  112  A    between atoms: _265  and  _268
REMARK  113  A    between atoms: _268  and  _269
REMARK  114  A    between atoms: _269  and  _270
REMARK  115  A    between atoms: _270  and  _271
REMARK  116  A    between atoms: _280  and  _282
REMARK  117  A    between atoms: _282  and  _283
REMARK  118  A    between atoms: _282  and  _285
REMARK  119  A    between atoms: _285  and  _286
REMARK  120  A    between atoms: _291  and  _293
REMARK  121  A    between atoms: _293  and  _294
REMARK  122  A    between atoms: _293  and  _296
REMARK  123  A    between atoms: _296  and  _297
REMARK  124  A    between atoms: _297  and  _298
REMARK  125  A    between atoms: _298  and  _299
REMARK  126  A    between atoms: _308  and  _310
REMARK  127  A    between atoms: _310  and  _311
REMARK  128  A    between atoms: _310  and  _313
REMARK  129  A    between atoms: _313  and  _314
REMARK  130  A    between atoms: _317  and  _319
REMARK  131  A    between atoms: _319  and  _320
REMARK  132  A    between atoms: _319  and  _322
REMARK  133  A    between atoms: _322  and  _323
REMARK  134  A    between atoms: _326  and  _328
REMARK  135  A    between atoms: _328  and  _329
REMARK  136  A    between atoms: _328  and  _331
REMARK  137  A    between atoms: _331  and  _332
REMARK  138  A    between atoms: _335  and  _337
REMARK  139  A    between atoms: _337  and  _338
REMARK  140  A    between atoms: _337  and  _340
REMARK  141  A    between atoms: _340  and  _341
REMARK  142  A    between atoms: _344  and  _346
REMARK  143  A    between atoms: _346  and  _347
REMARK  144  A    between atoms: _349  and  _351
REMARK  145  A    between atoms: _351  and  _352
REMARK  146  A    between atoms: _355  and  _357
REMARK  147  A    between atoms: _357  and  _358
REMARK  148  A    between atoms: _357  and  _360
REMARK  149  A    between atoms: _360  and  _361
REMARK  150  A    between atoms: _364  and  _366
REMARK  151  A    between atoms: _366  and  _367
REMARK  152  A    between atoms: _366  and  _369
REMARK  153  A    between atoms: _369  and  _370
REMARK  154  A    between atoms: _373  and  _375
REMARK  155  A    between atoms: _375  and  _376
REMARK  156  A    between atoms: _375  and  _378
REMARK  157  A    between atoms: _378  and  _379
REMARK  158  A    between atoms: _382  and  _384
REMARK  159  A    between atoms: _384  and  _385
REMARK  160  A    between atoms: _384  and  _387
REMARK  161  A    between atoms: _390  and  _392
REMARK  162  A    between atoms: _392  and  _393
REMARK  163  A    between atoms: _392  and  _395
REMARK  164  A    between atoms: _395  and  _396
REMARK  165  A    between atoms: _396  and  _397
REMARK  166  A    between atoms: _397  and  _398
REMARK  167  A    between atoms: _398  and  _399
REMARK  168  A    between atoms: _403  and  _405
REMARK  169  A    between atoms: _405  and  _406
REMARK  170  A    between atoms: _405  and  _408
REMARK  171  A    between atoms: _408  and  _409
REMARK  172  A    between atoms: _409  and  _410
REMARK  173  A    between atoms: _412  and  _414
REMARK  174  A    between atoms: _414  and  _415
REMARK  175  A    between atoms: _414  and  _417
REMARK  176  A    between atoms: _417  and  _418
REMARK  177  A    between atoms: _421  and  _423
REMARK  178  A    between atoms: _423  and  _424
REMARK  179  A    between atoms: _426  and  _428
REMARK  180  A    between atoms: _428  and  _429
REMARK  181  A    between atoms: _431  and  _433
REMARK  182  A    between atoms: _433  and  _434
REMARK  183  A    between atoms: _433  and  _436
REMARK  184  A    between atoms: _436  and  _437
REMARK  185  A    between atoms: _440  and  _442
REMARK  186  A    between atoms: _442  and  _443
REMARK  187  A    between atoms: _445  and  _447
REMARK  188  A    between atoms: _447  and  _448
REMARK  189  A    between atoms: _450  and  _452
REMARK  190  A    between atoms: _452  and  _453
REMARK  191  A    between atoms: _452  and  _455
REMARK  192  A    between atoms: _455  and  _456
REMARK  193  A    between atoms: _462  and  _464
REMARK  194  A    between atoms: _464  and  _465
REMARK  195  A    between atoms: _464  and  _467
REMARK  196  A    between atoms: _467  and  _468
REMARK  197  A    between atoms: _471  and  _473
REMARK  198  A    between atoms: _473  and  _474
REMARK  199  A    between atoms: _473  and  _476
REMARK  200  A    between atoms: _476  and  _477
REMARK  201  A    between atoms: _480  and  _482
REMARK  202  A    between atoms: _482  and  _483
REMARK  203  A    between atoms: _482  and  _485
REMARK  204  A    between atoms: _485  and  _486
REMARK  205  A    between atoms: _490  and  _491
REMARK  206  A    between atoms: _496  and  _498
REMARK  207  A    between atoms: _498  and  _499
REMARK  208  A    between atoms: _498  and  _501
REMARK  209  A    between atoms: _504  and  _506
REMARK  210  A    between atoms: _506  and  _507
REMARK  211  A    between atoms: _506  and  _509
REMARK  212  A    between atoms: _509  and  _510
REMARK  213  A    between atoms: _515  and  _517
REMARK  214  A    between atoms: _517  and  _518
REMARK  215  A    between atoms: _517  and  _520
REMARK  216  A    between atoms: _520  and  _521
REMARK  217  A    between atoms: _524  and  _526
REMARK  218  A    between atoms: _526  and  _527
REMARK  219  A    between atoms: _526  and  _529
REMARK  220  A    between atoms: _529  and  _530
REMARK  221  A    between atoms: _533  and  _535
REMARK  222  A    between atoms: _535  and  _536
REMARK  223  A    between atoms: _538  and  _540
REMARK  224  A    between atoms: _540  and  _541
REMARK  225  A    between atoms: _540  and  _543
REMARK  226  A    between atoms: _543  and  _544
REMARK  227  A    between atoms: _544  and  _545
REMARK  228  A    between atoms: _545  and  _546
REMARK  229  A    between atoms: _555  and  _557
REMARK  230  A    between atoms: _557  and  _558
REMARK  231  A    between atoms: _557  and  _560
REMARK  232  A    between atoms: _560  and  _561
REMARK                            x       y       z     vdW  Elec       q    Type
REMARK                         _______ _______ _______ _____ _____    ______ ____
ROOT
ATOM      1  O   HOH     1      30.189  30.046  12.993  0.00  0.00    +0.000 OA
ENDROOT
TORSDOF 0
REMARK  Name = ../refined-set-2016/3djk/3djk_pocket.pdb
REMARK  232 active torsions:
REMARK  status: ('A' for Active; 'I' for Inactive)
REMARK    1  A    between atoms: _1  and  _3
REMARK    2  A    between atoms: _3  and  _4
REMARK    3  A    between atoms: _3  and  _6
REMARK    4  A    between atoms: _6  and  _7
REMARK    5  A    between atoms: _7  and  _8
REMARK    6  A    between atoms: _8  and  _9
REMARK    7  A    between atoms: _9  and  _11
REMARK    8  A    between atoms: _11  and  _15
REMARK    9  A    between atoms: _18  and  _20
REMARK   10  A    between atoms: _20  and  _21
REMARK   11  A    between atoms: _20  and  _23
REMARK   12  A    between atoms: _23  and  _24
REMARK   13  A    between atoms: _27  and  _29
REMARK   14  A    between atoms: _29  and  _30
REMARK   15  A    between atoms: _29  and  _32
REMARK   16  A    between atoms: _32  and  _33
REMARK   17  A    between atoms: _36  and  _38
REMARK   18  A    between atoms: _38  and  _39
REMARK   19  A    between atoms: _38  and  _41
REMARK   20  A    between atoms: _41  and  _42
REMARK   21  A    between atoms: _45  and  _47
REMARK   22  A    between atoms: _47  and  _48
REMARK   23  A    between atoms: _47  and  _50
REMARK   24  A    between atoms: _50  and  _51
REMARK   25  A    between atoms: _54  and  _56
REMARK   26  A    between atoms: _56  and  _57
REMARK   27  A    between atoms: _59  and  _61
REMARK   28  A    between atoms: _61  and  _62
REMARK   29  A    between atoms: _65  and  _67
REMARK   30  A    between atoms: _67  and  _68
REMARK   31  A    between atoms: _67  and  _70
REMARK   32  A    between atoms: _70  and  _71
REMARK   33  A    between atoms: _74  and  _76
REMARK   34  A    between atoms: _76  and  _77
REMARK   35  A    between atoms: _76  and  _79
REMARK   36  A    between atoms: _79  and  _80
REMARK   37  A    between atoms: _83  and  _85
REMARK   38  A    between atoms: _85  and  _86
REMARK   39  A    between atoms: _85  and  _88
REMARK   40  A    between atoms: _88  and  _89
REMARK   41  A    between atoms: _92  and  _94
REMARK   42  A    between atoms: _94  and  _95
REMARK   43  A    between atoms: _94  and  _97
REMARK   44  A    between atoms: _100  and  _102
REMARK   45  A    between atoms: _102  and  _103
REMARK   46  A    between atoms: _102  and  _105
REMARK   47  A    between atoms: _105  and  _106
REMARK   48  A    between atoms: _106  and  _107
REMARK   49  A    between atoms: _107  and  _108
REMARK   50  A    between atoms: _108  and  _109
REMARK   51  A    between atoms: _113  and  _115
REMARK   52  A    between atoms: _115  and  _116
REMARK   53  A    between atoms: _115  and  _118
REMARK   54  A    between atoms: _118  and  _119
REMARK   55  A    between atoms: _119  and  _120
REMARK   56  A    between atoms: _122  and  _124
REMARK   57  A    between atoms: _124  and  _125
REMARK   58  A    between atoms: _124  and  _127
REMARK   59  A    between atoms: _127  and  _128
REMARK   60  A    between atoms: _131  and  _133
REMARK   61  A    between atoms: _133  and  _134
REMARK   62  A    between atoms: _136  and  _138
REMARK   63  A    between atoms: _138  and  _139
REMARK   64  A    between atoms: _141  and  _143
REMARK   65  A    between atoms: _143  and  _144
REMARK   66  A    between atoms: _143  and  _146
REMARK   67  A    between atoms: _146  and  _147
REMARK   68  A    between atoms: _150  and  _152
REMARK   69  A    between atoms: _152  and  _153
REMARK   70  A    between atoms: _155  and  _157
REMARK   71  A    between atoms: _157  and  _158
REMARK   72  A    between atoms: _160  and  _162
REMARK   73  A    between atoms: _162  and  _163
REMARK   74  A    between atoms: _162  and  _165
REMARK   75  A    between atoms: _165  and  _166
REMARK   76  A    between atoms: _172  and  _174
REMARK   77  A    between atoms: _174  and  _175
REMARK   78  A    between atoms: _174  and  _177
REMARK   79  A    between atoms: _177  and  _178
REMARK   80  A    between atoms: _181  and  _183
REMARK   81  A    between atoms: _183  and  _184
REMARK   82  A    between atoms: _183  and  _186
REMARK   83  A    between atoms: _189  and  _191
REMARK   84  A    between atoms: _191  and  _192
REMARK   85  A    between atoms: _191  and  _194
REMARK   86  A    between atoms: _194  and  _195
REMARK   87  A    between atoms: _199  and  _200
REMARK   88  A    between atoms: _205  and  _207
REMARK   89  A    between atoms: _207  and  _208
REMARK   90  A    between atoms: _207  and  _210
REMARK   91  A    between atoms: _210  and  _211
REMARK   92  A    between atoms: _215  and  _216
REMARK   93  A    between atoms: _221  and  _223
REMARK   94  A    between atoms: _223  and  _224
REMARK   95  A    between atoms: _223  and  _226
REMARK   96  A    between atoms: _229  and  _231
REMARK   97  A    between atoms: _231  and  _232
REMARK   98  A    between atoms: _231  and  _234
REMARK   99  A    between atoms: _234  and  _235
REMARK  100  A    between atoms: _240  and  _242
REMARK  101  A    between atoms: _242  and  _243
REMARK  102  A    between atoms: _242  and  _245
REMARK  103  A    between atoms: _245  and  _246
REMARK  104  A    between atoms: _249  and  _251
REMARK  105  A    between atoms: _251  and  _252
REMARK  106  A    between atoms: _251  and  _254
REMARK  107  A    between atoms: _254  and  _255
REMARK  108  A    between atoms: _258  and  _260
REMARK  109  A    between atoms: _260  and  _261
REMARK  110  A    between atoms: _263  and  _265
REMARK  111  A    between atoms: _265  and  _266
REMARK  112  A    between atoms: _265  and  _268
REMARK  113  A    between atoms: _268  and  _269
REMARK  114  A    between atoms: _269  and  _270
REMARK  115  A    between atoms: _270  and  _271
REMARK  116  A    between atoms: _280  and  _282
REMARK  117  A    between atoms: _282  and  _283
REMARK  118  A    between atoms: _282  and  _285
REMARK  119  A    between atoms: _285  and  _286
REMARK  120  A    between atoms: _291  and  _293
REMARK  121  A    between atoms: _293  and  _294
REMARK  122  A    between atoms: _293  and  _296
REMARK  123  A    between atoms: _296  and  _297
REMARK  124  A    between atoms: _297  and  _298
REMARK  125  A    between atoms: _298  and  _299
REMARK  126  A    between atoms: _308  and  _310
REMARK  127  A    between atoms: _310  and  _311
REMARK  128  A    between atoms: _310  and  _313
REMARK  129  A    between atoms: _313  and  _314
REMARK  130  A    between atoms: _317  and  _319
REMARK  131  A    between atoms: _319  and  _320
REMARK  132  A    between atoms: _319  and  _322
REMARK  133  A    between atoms: _322  and  _323
REMARK  134  A    between atoms: _326  and  _328
REMARK  135  A    between atoms: _328  and  _329
REMARK  136  A    between atoms: _328  and  _331
REMARK  137  A    between atoms: _331  and  _332
REMARK  138  A    between atoms: _335  and  _337
REMARK  139  A    between atoms: _337  and  _338
REMARK  140  A    between atoms: _337  and  _340
REMARK  141  A    between atoms: _340  and  _341
REMARK  142  A    between atoms: _344  and  _346
REMARK  143  A    between atoms: _346  and  _347
REMARK  144  A    between atoms: _349  and  _351
REMARK  145  A    between atoms: _351  and  _352
REMARK  146  A    between atoms: _355  and  _357
REMARK  147  A    between atoms: _357  and  _358
REMARK  148  A    between atoms: _357  and  _360
REMARK  149  A    between atoms: _360  and  _361
REMARK  150  A    between atoms: _364  and  _366
REMARK  151  A    between atoms: _366  and  _367
REMARK  152  A    between atoms: _366  and  _369
REMARK  153  A    between atoms: _369  and  _370
REMARK  154  A    between atoms: _373  and  _375
REMARK  155  A    between atoms: _375  and  _376
REMARK  156  A    between atoms: _375  and  _378
REMARK  157  A    between atoms: _378  and  _379
REMARK  158  A    between atoms: _382  and  _384
REMARK  159  A    between atoms: _384  and  _385
REMARK  160  A    between atoms: _384  and  _387
REMARK  161  A    between atoms: _390  and  _392
REMARK  162  A    between atoms: _392  and  _393
REMARK  163  A    between atoms: _392  and  _395
REMARK  164  A    between atoms: _395  and  _396
REMARK  165  A    between atoms: _396  and  _397
REMARK  166  A    between atoms: _397  and  _398
REMARK  167  A    between atoms: _398  and  _399
REMARK  168  A    between atoms: _403  and  _405
REMARK  169  A    between atoms: _405  and  _406
REMARK  170  A    between atoms: _405  and  _408
REMARK  171  A    between atoms: _408  and  _409
REMARK  172  A    between atoms: _409  and  _410
REMARK  173  A    between atoms: _412  and  _414
REMARK  174  A    between atoms: _414  and  _415
REMARK  175  A    between atoms: _414  and  _417
REMARK  176  A    between atoms: _417  and  _418
REMARK  177  A    between atoms: _421  and  _423
REMARK  178  A    between atoms: _423  and  _424
REMARK  179  A    between atoms: _426  and  _428
REMARK  180  A    between atoms: _428  and  _429
REMARK  181  A    between atoms: _431  and  _433
REMARK  182  A    between atoms: _433  and  _434
REMARK  183  A    between atoms: _433  and  _436
REMARK  184  A    between atoms: _436  and  _437
REMARK  185  A    between atoms: _440  and  _442
REMARK  186  A    between atoms: _442  and  _443
REMARK  187  A    between atoms: _445  and  _447
REMARK  188  A    between atoms: _447  and  _448
REMARK  189  A    between atoms: _450  and  _452
REMARK  190  A    between atoms: _452  and  _453
REMARK  191  A    between atoms: _452  and  _455
REMARK  192  A    between atoms: _455  and  _456
REMARK  193  A    between atoms: _462  and  _464
REMARK  194  A    between atoms: _464  and  _465
REMARK  195  A    between atoms: _464  and  _467
REMARK  196  A    between atoms: _467  and  _468
REMARK  197  A    between atoms: _471  and  _473
REMARK  198  A    between atoms: _473  and  _474
REMARK  199  A    between atoms: _473  and  _476
REMARK  200  A    between atoms: _476  and  _477
REMARK  201  A    between atoms: _480  and  _482
REMARK  202  A    between atoms: _482  and  _483
REMARK  203  A    between atoms: _482  and  _485
REMARK  204  A    between atoms: _485  and  _486
REMARK  205  A    between atoms: _490  and  _491
REMARK  206  A    between atoms: _496  and  _498
REMARK  207  A    between atoms: _498  and  _499
REMARK  208  A    between atoms: _498  and  _501
REMARK  209  A    between atoms: _504  and  _506
REMARK  210  A    between atoms: _506  and  _507
REMARK  211  A    between atoms: _506  and  _509
REMARK  212  A    between atoms: _509  and  _510
REMARK  213  A    between atoms: _515  and  _517
REMARK  214  A    between atoms: _517  and  _518
REMARK  215  A    between atoms: _517  and  _520
REMARK  216  A    between atoms: _520  and  _521
REMARK  217  A    between atoms: _524  and  _526
REMARK  218  A    between atoms: _526  and  _527
REMARK  219  A    between atoms: _526  and  _529
REMARK  220  A    between atoms: _529  and  _530
REMARK  221  A    between atoms: _533  and  _535
REMARK  222  A    between atoms: _535  and  _536
REMARK  223  A    between atoms: _538  and  _540
REMARK  224  A    between atoms: _540  and  _541
REMARK  225  A    between atoms: _540  and  _543
REMARK  226  A    between atoms: _543  and  _544
REMARK  227  A    between atoms: _544  and  _545
REMARK  228  A    between atoms: _545  and  _546
REMARK  229  A    between atoms: _555  and  _557
REMARK  230  A    between atoms: _557  and  _558
REMARK  231  A    between atoms: _557  and  _560
REMARK  232  A    between atoms: _560  and  _561
REMARK                            x       y       z     vdW  Elec       q    Type
REMARK                         _______ _______ _______ _____ _____    ______ ____
ROOT
ATOM      1  O   HOH     1      23.982  34.092  16.329  0.00  0.00    +0.000 OA
ENDROOT
TORSDOF 0
REMARK  Name = ../refined-set-2016/3djk/3djk_pocket.pdb
REMARK  232 active torsions:
REMARK  status: ('A' for Active; 'I' for Inactive)
REMARK    1  A    between atoms: _1  and  _3
REMARK    2  A    between atoms: _3  and  _4
REMARK    3  A    between atoms: _3  and  _6
REMARK    4  A    between atoms: _6  and  _7
REMARK    5  A    between atoms: _7  and  _8
REMARK    6  A    between atoms: _8  and  _9
REMARK    7  A    between atoms: _9  and  _11
REMARK    8  A    between atoms: _11  and  _15
REMARK    9  A    between atoms: _18  and  _20
REMARK   10  A    between atoms: _20  and  _21
REMARK   11  A    between atoms: _20  and  _23
REMARK   12  A    between atoms: _23  and  _24
REMARK   13  A    between atoms: _27  and  _29
REMARK   14  A    between atoms: _29  and  _30
REMARK   15  A    between atoms: _29  and  _32
REMARK   16  A    between atoms: _32  and  _33
REMARK   17  A    between atoms: _36  and  _38
REMARK   18  A    between atoms: _38  and  _39
REMARK   19  A    between atoms: _38  and  _41
REMARK   20  A    between atoms: _41  and  _42
REMARK   21  A    between atoms: _45  and  _47
REMARK   22  A    between atoms: _47  and  _48
REMARK   23  A    between atoms: _47  and  _50
REMARK   24  A    between atoms: _50  and  _51
REMARK   25  A    between atoms: _54  and  _56
REMARK   26  A    between atoms: _56  and  _57
REMARK   27  A    between atoms: _59  and  _61
REMARK   28  A    between atoms: _61  and  _62
REMARK   29  A    between atoms: _65  and  _67
REMARK   30  A    between atoms: _67  and  _68
REMARK   31  A    between atoms: _67  and  _70
REMARK   32  A    between atoms: _70  and  _71
REMARK   33  A    between atoms: _74  and  _76
REMARK   34  A    between atoms: _76  and  _77
REMARK   35  A    between atoms: _76  and  _79
REMARK   36  A    between atoms: _79  and  _80
REMARK   37  A    between atoms: _83  and  _85
REMARK   38  A    between atoms: _85  and  _86
REMARK   39  A    between atoms: _85  and  _88
REMARK   40  A    between atoms: _88  and  _89
REMARK   41  A    between atoms: _92  and  _94
REMARK   42  A    between atoms: _94  and  _95
REMARK   43  A    between atoms: _94  and  _97
REMARK   44  A    between atoms: _100  and  _102
REMARK   45  A    between atoms: _102  and  _103
REMARK   46  A    between atoms: _102  and  _105
REMARK   47  A    between atoms: _105  and  _106
REMARK   48  A    between atoms: _106  and  _107
REMARK   49  A    between atoms: _107  and  _108
REMARK   50  A    between atoms: _108  and  _109
REMARK   51  A    between atoms: _113  and  _115
REMARK   52  A    between atoms: _115  and  _116
REMARK   53  A    between atoms: _115  and  _118
REMARK   54  A    between atoms: _118  and  _119
REMARK   55  A    between atoms: _119  and  _120
REMARK   56  A    between atoms: _122  and  _124
REMARK   57  A    between atoms: _124  and  _125
REMARK   58  A    between atoms: _124  and  _127
REMARK   59  A    between atoms: _127  and  _128
REMARK   60  A    between atoms: _131  and  _133
REMARK   61  A    between atoms: _133  and  _134
REMARK   62  A    between atoms: _136  and  _138
REMARK   63  A    between atoms: _138  and  _139
REMARK   64  A    between atoms: _141  and  _143
REMARK   65  A    between atoms: _143  and  _144
REMARK   66  A    between atoms: _143  and  _146
REMARK   67  A    between atoms: _146  and  _147
REMARK   68  A    between atoms: _150  and  _152
REMARK   69  A    between atoms: _152  and  _153
REMARK   70  A    between atoms: _155  and  _157
REMARK   71  A    between atoms: _157  and  _158
REMARK   72  A    between atoms: _160  and  _162
REMARK   73  A    between atoms: _162  and  _163
REMARK   74  A    between atoms: _162  and  _165
REMARK   75  A    between atoms: _165  and  _166
REMARK   76  A    between atoms: _172  and  _174
REMARK   77  A    between atoms: _174  and  _175
REMARK   78  A    between atoms: _174  and  _177
REMARK   79  A    between atoms: _177  and  _178
REMARK   80  A    between atoms: _181  and  _183
REMARK   81  A    between atoms: _183  and  _184
REMARK   82  A    between atoms: _183  and  _186
REMARK   83  A    between atoms: _189  and  _191
REMARK   84  A    between atoms: _191  and  _192
REMARK   85  A    between atoms: _191  and  _194
REMARK   86  A    between atoms: _194  and  _195
REMARK   87  A    between atoms: _199  and  _200
REMARK   88  A    between atoms: _205  and  _207
REMARK   89  A    between atoms: _207  and  _208
REMARK   90  A    between atoms: _207  and  _210
REMARK   91  A    between atoms: _210  and  _211
REMARK   92  A    between atoms: _215  and  _216
REMARK   93  A    between atoms: _221  and  _223
REMARK   94  A    between atoms: _223  and  _224
REMARK   95  A    between atoms: _223  and  _226
REMARK   96  A    between atoms: _229  and  _231
REMARK   97  A    between atoms: _231  and  _232
REMARK   98  A    between atoms: _231  and  _234
REMARK   99  A    between atoms: _234  and  _235
REMARK  100  A    between atoms: _240  and  _242
REMARK  101  A    between atoms: _242  and  _243
REMARK  102  A    between atoms: _242  and  _245
REMARK  103  A    between atoms: _245  and  _246
REMARK  104  A    between atoms: _249  and  _251
REMARK  105  A    between atoms: _251  and  _252
REMARK  106  A    between atoms: _251  and  _254
REMARK  107  A    between atoms: _254  and  _255
REMARK  108  A    between atoms: _258  and  _260
REMARK  109  A    between atoms: _260  and  _261
REMARK  110  A    between atoms: _263  and  _265
REMARK  111  A    between atoms: _265  and  _266
REMARK  112  A    between atoms: _265  and  _268
REMARK  113  A    between atoms: _268  and  _269
REMARK  114  A    between atoms: _269  and  _270
REMARK  115  A    between atoms: _270  and  _271
REMARK  116  A    between atoms: _280  and  _282
REMARK  117  A    between atoms: _282  and  _283
REMARK  118  A    between atoms: _282  and  _285
REMARK  119  A    between atoms: _285  and  _286
REMARK  120  A    between atoms: _291  and  _293
REMARK  121  A    between atoms: _293  and  _294
REMARK  122  A    between atoms: _293  and  _296
REMARK  123  A    between atoms: _296  and  _297
REMARK  124  A    between atoms: _297  and  _298
REMARK  125  A    between atoms: _298  and  _299
REMARK  126  A    between atoms: _308  and  _310
REMARK  127  A    between atoms: _310  and  _311
REMARK  128  A    between atoms: _310  and  _313
REMARK  129  A    between atoms: _313  and  _314
REMARK  130  A    between atoms: _317  and  _319
REMARK  131  A    between atoms: _319  and  _320
REMARK  132  A    between atoms: _319  and  _322
REMARK  133  A    between atoms: _322  and  _323
REMARK  134  A    between atoms: _326  and  _328
REMARK  135  A    between atoms: _328  and  _329
REMARK  136  A    between atoms: _328  and  _331
REMARK  137  A    between atoms: _331  and  _332
REMARK  138  A    between atoms: _335  and  _337
REMARK  139  A    between atoms: _337  and  _338
REMARK  140  A    between atoms: _337  and  _340
REMARK  141  A    between atoms: _340  and  _341
REMARK  142  A    between atoms: _344  and  _346
REMARK  143  A    between atoms: _346  and  _347
REMARK  144  A    between atoms: _349  and  _351
REMARK  145  A    between atoms: _351  and  _352
REMARK  146  A    between atoms: _355  and  _357
REMARK  147  A    between atoms: _357  and  _358
REMARK  148  A    between atoms: _357  and  _360
REMARK  149  A    between atoms: _360  and  _361
REMARK  150  A    between atoms: _364  and  _366
REMARK  151  A    between atoms: _366  and  _367
REMARK  152  A    between atoms: _366  and  _369
REMARK  153  A    between atoms: _369  and  _370
REMARK  154  A    between atoms: _373  and  _375
REMARK  155  A    between atoms: _375  and  _376
REMARK  156  A    between atoms: _375  and  _378
REMARK  157  A    between atoms: _378  and  _379
REMARK  158  A    between atoms: _382  and  _384
REMARK  159  A    between atoms: _384  and  _385
REMARK  160  A    between atoms: _384  and  _387
REMARK  161  A    between atoms: _390  and  _392
REMARK  162  A    between atoms: _392  and  _393
REMARK  163  A    between atoms: _392  and  _395
REMARK  164  A    between atoms: _395  and  _396
REMARK  165  A    between atoms: _396  and  _397
REMARK  166  A    between atoms: _397  and  _398
REMARK  167  A    between atoms: _398  and  _399
REMARK  168  A    between atoms: _403  and  _405
REMARK  169  A    between atoms: _405  and  _406
REMARK  170  A    between atoms: _405  and  _408
REMARK  171  A    between atoms: _408  and  _409
REMARK  172  A    between atoms: _409  and  _410
REMARK  173  A    between atoms: _412  and  _414
REMARK  174  A    between atoms: _414  and  _415
REMARK  175  A    between atoms: _414  and  _417
REMARK  176  A    between atoms: _417  and  _418
REMARK  177  A    between atoms: _421  and  _423
REMARK  178  A    between atoms: _423  and  _424
REMARK  179  A    between atoms: _426  and  _428
REMARK  180  A    between atoms: _428  and  _429
REMARK  181  A    between atoms: _431  and  _433
REMARK  182  A    between atoms: _433  and  _434
REMARK  183  A    between atoms: _433  and  _436
REMARK  184  A    between atoms: _436  and  _437
REMARK  185  A    between atoms: _440  and  _442
REMARK  186  A    between atoms: _442  and  _443
REMARK  187  A    between atoms: _445  and  _447
REMARK  188  A    between atoms: _447  and  _448
REMARK  189  A    between atoms: _450  and  _452
REMARK  190  A    between atoms: _452  and  _453
REMARK  191  A    between atoms: _452  and  _455
REMARK  192  A    between atoms: _455  and  _456
REMARK  193  A    between atoms: _462  and  _464
REMARK  194  A    between atoms: _464  and  _465
REMARK  195  A    between atoms: _464  and  _467
REMARK  196  A    between atoms: _467  and  _468
REMARK  197  A    between atoms: _471  and  _473
REMARK  198  A    between atoms: _473  and  _474
REMARK  199  A    between atoms: _473  and  _476
REMARK  200  A    between atoms: _476  and  _477
REMARK  201  A    between atoms: _480  and  _482
REMARK  202  A    between atoms: _482  and  _483
REMARK  203  A    between atoms: _482  and  _485
REMARK  204  A    between atoms: _485  and  _486
REMARK  205  A    between atoms: _490  and  _491
REMARK  206  A    between atoms: _496  and  _498
REMARK  207  A    between atoms: _498  and  _499
REMARK  208  A    between atoms: _498  and  _501
REMARK  209  A    between atoms: _504  and  _506
REMARK  210  A    between atoms: _506  and  _507
REMARK  211  A    between atoms: _506  and  _509
REMARK  212  A    between atoms: _509  and  _510
REMARK  213  A    between atoms: _515  and  _517
REMARK  214  A    between atoms: _517  and  _518
REMARK  215  A    between atoms: _517  and  _520
REMARK  216  A    between atoms: _520  and  _521
REMARK  217  A    between atoms: _524  and  _526
REMARK  218  A    between atoms: _526  and  _527
REMARK  219  A    between atoms: _526  and  _529
REMARK  220  A    between atoms: _529  and  _530
REMARK  221  A    between atoms: _533  and  _535
REMARK  222  A    between atoms: _535  and  _536
REMARK  223  A    between atoms: _538  and  _540
REMARK  224  A    between atoms: _540  and  _541
REMARK  225  A    between atoms: _540  and  _543
REMARK  226  A    between atoms: _543  and  _544
REMARK  227  A    between atoms: _544  and  _545
REMARK  228  A    between atoms: _545  and  _546
REMARK  229  A    between atoms: _555  and  _557
REMARK  230  A    between atoms: _557  and  _558
REMARK  231  A    between atoms: _557  and  _560
REMARK  232  A    between atoms: _560  and  _561
REMARK                            x       y       z     vdW  Elec       q    Type
REMARK                         _______ _______ _______ _____ _____    ______ ____
ROOT
ATOM      1  O   HOH     1      25.173  30.567  17.543  0.00  0.00    +0.000 OA
ENDROOT
TORSDOF 0
REMARK  Name = ../refined-set-2016/3djk/3djk_pocket.pdb
REMARK  232 active torsions:
REMARK  status: ('A' for Active; 'I' for Inactive)
REMARK    1  A    between atoms: _1  and  _3
REMARK    2  A    between atoms: _3  and  _4
REMARK    3  A    between atoms: _3  and  _6
REMARK    4  A    between atoms: _6  and  _7
REMARK    5  A    between atoms: _7  and  _8
REMARK    6  A    between atoms: _8  and  _9
REMARK    7  A    between atoms: _9  and  _11
REMARK    8  A    between atoms: _11  and  _15
REMARK    9  A    between atoms: _18  and  _20
REMARK   10  A    between atoms: _20  and  _21
REMARK   11  A    between atoms: _20  and  _23
REMARK   12  A    between atoms: _23  and  _24
REMARK   13  A    between atoms: _27  and  _29
REMARK   14  A    between atoms: _29  and  _30
REMARK   15  A    between atoms: _29  and  _32
REMARK   16  A    between atoms: _32  and  _33
REMARK   17  A    between atoms: _36  and  _38
REMARK   18  A    between atoms: _38  and  _39
REMARK   19  A    between atoms: _38  and  _41
REMARK   20  A    between atoms: _41  and  _42
REMARK   21  A    between atoms: _45  and  _47
REMARK   22  A    between atoms: _47  and  _48
REMARK   23  A    between atoms: _47  and  _50
REMARK   24  A    between atoms: _50  and  _51
REMARK   25  A    between atoms: _54  and  _56
REMARK   26  A    between atoms: _56  and  _57
REMARK   27  A    between atoms: _59  and  _61
REMARK   28  A    between atoms: _61  and  _62
REMARK   29  A    between atoms: _65  and  _67
REMARK   30  A    between atoms: _67  and  _68
REMARK   31  A    between atoms: _67  and  _70
REMARK   32  A    between atoms: _70  and  _71
REMARK   33  A    between atoms: _74  and  _76
REMARK   34  A    between atoms: _76  and  _77
REMARK   35  A    between atoms: _76  and  _79
REMARK   36  A    between atoms: _79  and  _80
REMARK   37  A    between atoms: _83  and  _85
REMARK   38  A    between atoms: _85  and  _86
REMARK   39  A    between atoms: _85  and  _88
REMARK   40  A    between atoms: _88  and  _89
REMARK   41  A    between atoms: _92  and  _94
REMARK   42  A    between atoms: _94  and  _95
REMARK   43  A    between atoms: _94  and  _97
REMARK   44  A    between atoms: _100  and  _102
REMARK   45  A    between atoms: _102  and  _103
REMARK   46  A    between atoms: _102  and  _105
REMARK   47  A    between atoms: _105  and  _106
REMARK   48  A    between atoms: _106  and  _107
REMARK   49  A    between atoms: _107  and  _108
REMARK   50  A    between atoms: _108  and  _109
REMARK   51  A    between atoms: _113  and  _115
REMARK   52  A    between atoms: _115  and  _116
REMARK   53  A    between atoms: _115  and  _118
REMARK   54  A    between atoms: _118  and  _119
REMARK   55  A    between atoms: _119  and  _120
REMARK   56  A    between atoms: _122  and  _124
REMARK   57  A    between atoms: _124  and  _125
REMARK   58  A    between atoms: _124  and  _127
REMARK   59  A    between atoms: _127  and  _128
REMARK   60  A    between atoms: _131  and  _133
REMARK   61  A    between atoms: _133  and  _134
REMARK   62  A    between atoms: _136  and  _138
REMARK   63  A    between atoms: _138  and  _139
REMARK   64  A    between atoms: _141  and  _143
REMARK   65  A    between atoms: _143  and  _144
REMARK   66  A    between atoms: _143  and  _146
REMARK   67  A    between atoms: _146  and  _147
REMARK   68  A    between atoms: _150  and  _152
REMARK   69  A    between atoms: _152  and  _153
REMARK   70  A    between atoms: _155  and  _157
REMARK   71  A    between atoms: _157  and  _158
REMARK   72  A    between atoms: _160  and  _162
REMARK   73  A    between atoms: _162  and  _163
REMARK   74  A    between atoms: _162  and  _165
REMARK   75  A    between atoms: _165  and  _166
REMARK   76  A    between atoms: _172  and  _174
REMARK   77  A    between atoms: _174  and  _175
REMARK   78  A    between atoms: _174  and  _177
REMARK   79  A    between atoms: _177  and  _178
REMARK   80  A    between atoms: _181  and  _183
REMARK   81  A    between atoms: _183  and  _184
REMARK   82  A    between atoms: _183  and  _186
REMARK   83  A    between atoms: _189  and  _191
REMARK   84  A    between atoms: _191  and  _192
REMARK   85  A    between atoms: _191  and  _194
REMARK   86  A    between atoms: _194  and  _195
REMARK   87  A    between atoms: _199  and  _200
REMARK   88  A    between atoms: _205  and  _207
REMARK   89  A    between atoms: _207  and  _208
REMARK   90  A    between atoms: _207  and  _210
REMARK   91  A    between atoms: _210  and  _211
REMARK   92  A    between atoms: _215  and  _216
REMARK   93  A    between atoms: _221  and  _223
REMARK   94  A    between atoms: _223  and  _224
REMARK   95  A    between atoms: _223  and  _226
REMARK   96  A    between atoms: _229  and  _231
REMARK   97  A    between atoms: _231  and  _232
REMARK   98  A    between atoms: _231  and  _234
REMARK   99  A    between atoms: _234  and  _235
REMARK  100  A    between atoms: _240  and  _242
REMARK  101  A    between atoms: _242  and  _243
REMARK  102  A    between atoms: _242  and  _245
REMARK  103  A    between atoms: _245  and  _246
REMARK  104  A    between atoms: _249  and  _251
REMARK  105  A    between atoms: _251  and  _252
REMARK  106  A    between atoms: _251  and  _254
REMARK  107  A    between atoms: _254  and  _255
REMARK  108  A    between atoms: _258  and  _260
REMARK  109  A    between atoms: _260  and  _261
REMARK  110  A    between atoms: _263  and  _265
REMARK  111  A    between atoms: _265  and  _266
REMARK  112  A    between atoms: _265  and  _268
REMARK  113  A    between atoms: _268  and  _269
REMARK  114  A    between atoms: _269  and  _270
REMARK  115  A    between atoms: _270  and  _271
REMARK  116  A    between atoms: _280  and  _282
REMARK  117  A    between atoms: _282  and  _283
REMARK  118  A    between atoms: _282  and  _285
REMARK  119  A    between atoms: _285  and  _286
REMARK  120  A    between atoms: _291  and  _293
REMARK  121  A    between atoms: _293  and  _294
REMARK  122  A    between atoms: _293  and  _296
REMARK  123  A    between atoms: _296  and  _297
REMARK  124  A    between atoms: _297  and  _298
REMARK  125  A    between atoms: _298  and  _299
REMARK  126  A    between atoms: _308  and  _310
REMARK  127  A    between atoms: _310  and  _311
REMARK  128  A    between atoms: _310  and  _313
REMARK  129  A    between atoms: _313  and  _314
REMARK  130  A    between atoms: _317  and  _319
REMARK  131  A    between atoms: _319  and  _320
REMARK  132  A    between atoms: _319  and  _322
REMARK  133  A    between atoms: _322  and  _323
REMARK  134  A    between atoms: _326  and  _328
REMARK  135  A    between atoms: _328  and  _329
REMARK  136  A    between atoms: _328  and  _331
REMARK  137  A    between atoms: _331  and  _332
REMARK  138  A    between atoms: _335  and  _337
REMARK  139  A    between atoms: _337  and  _338
REMARK  140  A    between atoms: _337  and  _340
REMARK  141  A    between atoms: _340  and  _341
REMARK  142  A    between atoms: _344  and  _346
REMARK  143  A    between atoms: _346  and  _347
REMARK  144  A    between atoms: _349  and  _351
REMARK  145  A    between atoms: _351  and  _352
REMARK  146  A    between atoms: _355  and  _357
REMARK  147  A    between atoms: _357  and  _358
REMARK  148  A    between atoms: _357  and  _360
REMARK  149  A    between atoms: _360  and  _361
REMARK  150  A    between atoms: _364  and  _366
REMARK  151  A    between atoms: _366  and  _367
REMARK  152  A    between atoms: _366  and  _369
REMARK  153  A    between atoms: _369  and  _370
REMARK  154  A    between atoms: _373  and  _375
REMARK  155  A    between atoms: _375  and  _376
REMARK  156  A    between atoms: _375  and  _378
REMARK  157  A    between atoms: _378  and  _379
REMARK  158  A    between atoms: _382  and  _384
REMARK  159  A    between atoms: _384  and  _385
REMARK  160  A    between atoms: _384  and  _387
REMARK  161  A    between atoms: _390  and  _392
REMARK  162  A    between atoms: _392  and  _393
REMARK  163  A    between atoms: _392  and  _395
REMARK  164  A    between atoms: _395  and  _396
REMARK  165  A    between atoms: _396  and  _397
REMARK  166  A    between atoms: _397  and  _398
REMARK  167  A    between atoms: _398  and  _399
REMARK  168  A    between atoms: _403  and  _405
REMARK  169  A    between atoms: _405  and  _406
REMARK  170  A    between atoms: _405  and  _408
REMARK  171  A    between atoms: _408  and  _409
REMARK  172  A    between atoms: _409  and  _410
REMARK  173  A    between atoms: _412  and  _414
REMARK  174  A    between atoms: _414  and  _415
REMARK  175  A    between atoms: _414  and  _417
REMARK  176  A    between atoms: _417  and  _418
REMARK  177  A    between atoms: _421  and  _423
REMARK  178  A    between atoms: _423  and  _424
REMARK  179  A    between atoms: _426  and  _428
REMARK  180  A    between atoms: _428  and  _429
REMARK  181  A    between atoms: _431  and  _433
REMARK  182  A    between atoms: _433  and  _434
REMARK  183  A    between atoms: _433  and  _436
REMARK  184  A    between atoms: _436  and  _437
REMARK  185  A    between atoms: _440  and  _442
REMARK  186  A    between atoms: _442  and  _443
REMARK  187  A    between atoms: _445  and  _447
REMARK  188  A    between atoms: _447  and  _448
REMARK  189  A    between atoms: _450  and  _452
REMARK  190  A    between atoms: _452  and  _453
REMARK  191  A    between atoms: _452  and  _455
REMARK  192  A    between atoms: _455  and  _456
REMARK  193  A    between atoms: _462  and  _464
REMARK  194  A    between atoms: _464  and  _465
REMARK  195  A    between atoms: _464  and  _467
REMARK  196  A    between atoms: _467  and  _468
REMARK  197  A    between atoms: _471  and  _473
REMARK  198  A    between atoms: _473  and  _474
REMARK  199  A    between atoms: _473  and  _476
REMARK  200  A    between atoms: _476  and  _477
REMARK  201  A    between atoms: _480  and  _482
REMARK  202  A    between atoms: _482  and  _483
REMARK  203  A    between atoms: _482  and  _485
REMARK  204  A    between atoms: _485  and  _486
REMARK  205  A    between atoms: _490  and  _491
REMARK  206  A    between atoms: _496  and  _498
REMARK  207  A    between atoms: _498  and  _499
REMARK  208  A    between atoms: _498  and  _501
REMARK  209  A    between atoms: _504  and  _506
REMARK  210  A    between atoms: _506  and  _507
REMARK  211  A    between atoms: _506  and  _509
REMARK  212  A    between atoms: _509  and  _510
REMARK  213  A    between atoms: _515  and  _517
REMARK  214  A    between atoms: _517  and  _518
REMARK  215  A    between atoms: _517  and  _520
REMARK  216  A    between atoms: _520  and  _521
REMARK  217  A    between atoms: _524  and  _526
REMARK  218  A    between atoms: _526  and  _527
REMARK  219  A    between atoms: _526  and  _529
REMARK  220  A    between atoms: _529  and  _530
REMARK  221  A    between atoms: _533  and  _535
REMARK  222  A    between atoms: _535  and  _536
REMARK  223  A    between atoms: _538  and  _540
REMARK  224  A    between atoms: _540  and  _541
REMARK  225  A    between atoms: _540  and  _543
REMARK  226  A    between atoms: _543  and  _544
REMARK  227  A    between atoms: _544  and  _545
REMARK  228  A    between atoms: _545  and  _546
REMARK  229  A    between atoms: _555  and  _557
REMARK  230  A    between atoms: _557  and  _558
REMARK  231  A    between atoms: _557  and  _560
REMARK  232  A    between atoms: _560  and  _561
REMARK                            x       y       z     vdW  Elec       q    Type
REMARK                         _______ _______ _______ _____ _____    ______ ____
ROOT
ATOM      1  O   HOH     1       9.393  16.222  26.659  0.00  0.00    +0.000 OA
ENDROOT
TORSDOF 0
REMARK  Name = ../refined-set-2016/3djk/3djk_pocket.pdb
REMARK  232 active torsions:
REMARK  status: ('A' for Active; 'I' for Inactive)
REMARK    1  A    between atoms: _1  and  _3
REMARK    2  A    between atoms: _3  and  _4
REMARK    3  A    between atoms: _3  and  _6
REMARK    4  A    between atoms: _6  and  _7
REMARK    5  A    between atoms: _7  and  _8
REMARK    6  A    between atoms: _8  and  _9
REMARK    7  A    between atoms: _9  and  _11
REMARK    8  A    between atoms: _11  and  _15
REMARK    9  A    between atoms: _18  and  _20
REMARK   10  A    between atoms: _20  and  _21
REMARK   11  A    between atoms: _20  and  _23
REMARK   12  A    between atoms: _23  and  _24
REMARK   13  A    between atoms: _27  and  _29
REMARK   14  A    between atoms: _29  and  _30
REMARK   15  A    between atoms: _29  and  _32
REMARK   16  A    between atoms: _32  and  _33
REMARK   17  A    between atoms: _36  and  _38
REMARK   18  A    between atoms: _38  and  _39
REMARK   19  A    between atoms: _38  and  _41
REMARK   20  A    between atoms: _41  and  _42
REMARK   21  A    between atoms: _45  and  _47
REMARK   22  A    between atoms: _47  and  _48
REMARK   23  A    between atoms: _47  and  _50
REMARK   24  A    between atoms: _50  and  _51
REMARK   25  A    between atoms: _54  and  _56
REMARK   26  A    between atoms: _56  and  _57
REMARK   27  A    between atoms: _59  and  _61
REMARK   28  A    between atoms: _61  and  _62
REMARK   29  A    between atoms: _65  and  _67
REMARK   30  A    between atoms: _67  and  _68
REMARK   31  A    between atoms: _67  and  _70
REMARK   32  A    between atoms: _70  and  _71
REMARK   33  A    between atoms: _74  and  _76
REMARK   34  A    between atoms: _76  and  _77
REMARK   35  A    between atoms: _76  and  _79
REMARK   36  A    between atoms: _79  and  _80
REMARK   37  A    between atoms: _83  and  _85
REMARK   38  A    between atoms: _85  and  _86
REMARK   39  A    between atoms: _85  and  _88
REMARK   40  A    between atoms: _88  and  _89
REMARK   41  A    between atoms: _92  and  _94
REMARK   42  A    between atoms: _94  and  _95
REMARK   43  A    between atoms: _94  and  _97
REMARK   44  A    between atoms: _100  and  _102
REMARK   45  A    between atoms: _102  and  _103
REMARK   46  A    between atoms: _102  and  _105
REMARK   47  A    between atoms: _105  and  _106
REMARK   48  A    between atoms: _106  and  _107
REMARK   49  A    between atoms: _107  and  _108
REMARK   50  A    between atoms: _108  and  _109
REMARK   51  A    between atoms: _113  and  _115
REMARK   52  A    between atoms: _115  and  _116
REMARK   53  A    between atoms: _115  and  _118
REMARK   54  A    between atoms: _118  and  _119
REMARK   55  A    between atoms: _119  and  _120
REMARK   56  A    between atoms: _122  and  _124
REMARK   57  A    between atoms: _124  and  _125
REMARK   58  A    between atoms: _124  and  _127
REMARK   59  A    between atoms: _127  and  _128
REMARK   60  A    between atoms: _131  and  _133
REMARK   61  A    between atoms: _133  and  _134
REMARK   62  A    between atoms: _136  and  _138
REMARK   63  A    between atoms: _138  and  _139
REMARK   64  A    between atoms: _141  and  _143
REMARK   65  A    between atoms: _143  and  _144
REMARK   66  A    between atoms: _143  and  _146
REMARK   67  A    between atoms: _146  and  _147
REMARK   68  A    between atoms: _150  and  _152
REMARK   69  A    between atoms: _152  and  _153
REMARK   70  A    between atoms: _155  and  _157
REMARK   71  A    between atoms: _157  and  _158
REMARK   72  A    between atoms: _160  and  _162
REMARK   73  A    between atoms: _162  and  _163
REMARK   74  A    between atoms: _162  and  _165
REMARK   75  A    between atoms: _165  and  _166
REMARK   76  A    between atoms: _172  and  _174
REMARK   77  A    between atoms: _174  and  _175
REMARK   78  A    between atoms: _174  and  _177
REMARK   79  A    between atoms: _177  and  _178
REMARK   80  A    between atoms: _181  and  _183
REMARK   81  A    between atoms: _183  and  _184
REMARK   82  A    between atoms: _183  and  _186
REMARK   83  A    between atoms: _189  and  _191
REMARK   84  A    between atoms: _191  and  _192
REMARK   85  A    between atoms: _191  and  _194
REMARK   86  A    between atoms: _194  and  _195
REMARK   87  A    between atoms: _199  and  _200
REMARK   88  A    between atoms: _205  and  _207
REMARK   89  A    between atoms: _207  and  _208
REMARK   90  A    between atoms: _207  and  _210
REMARK   91  A    between atoms: _210  and  _211
REMARK   92  A    between atoms: _215  and  _216
REMARK   93  A    between atoms: _221  and  _223
REMARK   94  A    between atoms: _223  and  _224
REMARK   95  A    between atoms: _223  and  _226
REMARK   96  A    between atoms: _229  and  _231
REMARK   97  A    between atoms: _231  and  _232
REMARK   98  A    between atoms: _231  and  _234
REMARK   99  A    between atoms: _234  and  _235
REMARK  100  A    between atoms: _240  and  _242
REMARK  101  A    between atoms: _242  and  _243
REMARK  102  A    between atoms: _242  and  _245
REMARK  103  A    between atoms: _245  and  _246
REMARK  104  A    between atoms: _249  and  _251
REMARK  105  A    between atoms: _251  and  _252
REMARK  106  A    between atoms: _251  and  _254
REMARK  107  A    between atoms: _254  and  _255
REMARK  108  A    between atoms: _258  and  _260
REMARK  109  A    between atoms: _260  and  _261
REMARK  110  A    between atoms: _263  and  _265
REMARK  111  A    between atoms: _265  and  _266
REMARK  112  A    between atoms: _265  and  _268
REMARK  113  A    between atoms: _268  and  _269
REMARK  114  A    between atoms: _269  and  _270
REMARK  115  A    between atoms: _270  and  _271
REMARK  116  A    between atoms: _280  and  _282
REMARK  117  A    between atoms: _282  and  _283
REMARK  118  A    between atoms: _282  and  _285
REMARK  119  A    between atoms: _285  and  _286
REMARK  120  A    between atoms: _291  and  _293
REMARK  121  A    between atoms: _293  and  _294
REMARK  122  A    between atoms: _293  and  _296
REMARK  123  A    between atoms: _296  and  _297
REMARK  124  A    between atoms: _297  and  _298
REMARK  125  A    between atoms: _298  and  _299
REMARK  126  A    between atoms: _308  and  _310
REMARK  127  A    between atoms: _310  and  _311
REMARK  128  A    between atoms: _310  and  _313
REMARK  129  A    between atoms: _313  and  _314
REMARK  130  A    between atoms: _317  and  _319
REMARK  131  A    between atoms: _319  and  _320
REMARK  132  A    between atoms: _319  and  _322
REMARK  133  A    between atoms: _322  and  _323
REMARK  134  A    between atoms: _326  and  _328
REMARK  135  A    between atoms: _328  and  _329
REMARK  136  A    between atoms: _328  and  _331
REMARK  137  A    between atoms: _331  and  _332
REMARK  138  A    between atoms: _335  and  _337
REMARK  139  A    between atoms: _337  and  _338
REMARK  140  A    between atoms: _337  and  _340
REMARK  141  A    between atoms: _340  and  _341
REMARK  142  A    between atoms: _344  and  _346
REMARK  143  A    between atoms: _346  and  _347
REMARK  144  A    between atoms: _349  and  _351
REMARK  145  A    between atoms: _351  and  _352
REMARK  146  A    between atoms: _355  and  _357
REMARK  147  A    between atoms: _357  and  _358
REMARK  148  A    between atoms: _357  and  _360
REMARK  149  A    between atoms: _360  and  _361
REMARK  150  A    between atoms: _364  and  _366
REMARK  151  A    between atoms: _366  and  _367
REMARK  152  A    between atoms: _366  and  _369
REMARK  153  A    between atoms: _369  and  _370
REMARK  154  A    between atoms: _373  and  _375
REMARK  155  A    between atoms: _375  and  _376
REMARK  156  A    between atoms: _375  and  _378
REMARK  157  A    between atoms: _378  and  _379
REMARK  158  A    between atoms: _382  and  _384
REMARK  159  A    between atoms: _384  and  _385
REMARK  160  A    between atoms: _384  and  _387
REMARK  161  A    between atoms: _390  and  _392
REMARK  162  A    between atoms: _392  and  _393
REMARK  163  A    between atoms: _392  and  _395
REMARK  164  A    between atoms: _395  and  _396
REMARK  165  A    between atoms: _396  and  _397
REMARK  166  A    between atoms: _397  and  _398
REMARK  167  A    between atoms: _398  and  _399
REMARK  168  A    between atoms: _403  and  _405
REMARK  169  A    between atoms: _405  and  _406
REMARK  170  A    between atoms: _405  and  _408
REMARK  171  A    between atoms: _408  and  _409
REMARK  172  A    between atoms: _409  and  _410
REMARK  173  A    between atoms: _412  and  _414
REMARK  174  A    between atoms: _414  and  _415
REMARK  175  A    between atoms: _414  and  _417
REMARK  176  A    between atoms: _417  and  _418
REMARK  177  A    between atoms: _421  and  _423
REMARK  178  A    between atoms: _423  and  _424
REMARK  179  A    between atoms: _426  and  _428
REMARK  180  A    between atoms: _428  and  _429
REMARK  181  A    between atoms: _431  and  _433
REMARK  182  A    between atoms: _433  and  _434
REMARK  183  A    between atoms: _433  and  _436
REMARK  184  A    between atoms: _436  and  _437
REMARK  185  A    between atoms: _440  and  _442
REMARK  186  A    between atoms: _442  and  _443
REMARK  187  A    between atoms: _445  and  _447
REMARK  188  A    between atoms: _447  and  _448
REMARK  189  A    between atoms: _450  and  _452
REMARK  190  A    between atoms: _452  and  _453
REMARK  191  A    between atoms: _452  and  _455
REMARK  192  A    between atoms: _455  and  _456
REMARK  193  A    between atoms: _462  and  _464
REMARK  194  A    between atoms: _464  and  _465
REMARK  195  A    between atoms: _464  and  _467
REMARK  196  A    between atoms: _467  and  _468
REMARK  197  A    between atoms: _471  and  _473
REMARK  198  A    between atoms: _473  and  _474
REMARK  199  A    between atoms: _473  and  _476
REMARK  200  A    between atoms: _476  and  _477
REMARK  201  A    between atoms: _480  and  _482
REMARK  202  A    between atoms: _482  and  _483
REMARK  203  A    between atoms: _482  and  _485
REMARK  204  A    between atoms: _485  and  _486
REMARK  205  A    between atoms: _490  and  _491
REMARK  206  A    between atoms: _496  and  _498
REMARK  207  A    between atoms: _498  and  _499
REMARK  208  A    between atoms: _498  and  _501
REMARK  209  A    between atoms: _504  and  _506
REMARK  210  A    between atoms: _506  and  _507
REMARK  211  A    between atoms: _506  and  _509
REMARK  212  A    between atoms: _509  and  _510
REMARK  213  A    between atoms: _515  and  _517
REMARK  214  A    between atoms: _517  and  _518
REMARK  215  A    between atoms: _517  and  _520
REMARK  216  A    between atoms: _520  and  _521
REMARK  217  A    between atoms: _524  and  _526
REMARK  218  A    between atoms: _526  and  _527
REMARK  219  A    between atoms: _526  and  _529
REMARK  220  A    between atoms: _529  and  _530
REMARK  221  A    between atoms: _533  and  _535
REMARK  222  A    between atoms: _535  and  _536
REMARK  223  A    between atoms: _538  and  _540
REMARK  224  A    between atoms: _540  and  _541
REMARK  225  A    between atoms: _540  and  _543
REMARK  226  A    between atoms: _543  and  _544
REMARK  227  A    between atoms: _544  and  _545
REMARK  228  A    between atoms: _545  and  _546
REMARK  229  A    between atoms: _555  and  _557
REMARK  230  A    between atoms: _557  and  _558
REMARK  231  A    between atoms: _557  and  _560
REMARK  232  A    between atoms: _560  and  _561
REMARK                            x       y       z     vdW  Elec       q    Type
REMARK                         _______ _______ _______ _____ _____    ______ ____
ROOT
ATOM      1  O   HOH     1       7.355  23.974  18.278  0.00  0.00    +0.000 OA
ENDROOT
TORSDOF 0
REMARK  Name = ../refined-set-2016/3djk/3djk_pocket.pdb
REMARK  232 active torsions:
REMARK  status: ('A' for Active; 'I' for Inactive)
REMARK    1  A    between atoms: _1  and  _3
REMARK    2  A    between atoms: _3  and  _4
REMARK    3  A    between atoms: _3  and  _6
REMARK    4  A    between atoms: _6  and  _7
REMARK    5  A    between atoms: _7  and  _8
REMARK    6  A    between atoms: _8  and  _9
REMARK    7  A    between atoms: _9  and  _11
REMARK    8  A    between atoms: _11  and  _15
REMARK    9  A    between atoms: _18  and  _20
REMARK   10  A    between atoms: _20  and  _21
REMARK   11  A    between atoms: _20  and  _23
REMARK   12  A    between atoms: _23  and  _24
REMARK   13  A    between atoms: _27  and  _29
REMARK   14  A    between atoms: _29  and  _30
REMARK   15  A    between atoms: _29  and  _32
REMARK   16  A    between atoms: _32  and  _33
REMARK   17  A    between atoms: _36  and  _38
REMARK   18  A    between atoms: _38  and  _39
REMARK   19  A    between atoms: _38  and  _41
REMARK   20  A    between atoms: _41  and  _42
REMARK   21  A    between atoms: _45  and  _47
REMARK   22  A    between atoms: _47  and  _48
REMARK   23  A    between atoms: _47  and  _50
REMARK   24  A    between atoms: _50  and  _51
REMARK   25  A    between atoms: _54  and  _56
REMARK   26  A    between atoms: _56  and  _57
REMARK   27  A    between atoms: _59  and  _61
REMARK   28  A    between atoms: _61  and  _62
REMARK   29  A    between atoms: _65  and  _67
REMARK   30  A    between atoms: _67  and  _68
REMARK   31  A    between atoms: _67  and  _70
REMARK   32  A    between atoms: _70  and  _71
REMARK   33  A    between atoms: _74  and  _76
REMARK   34  A    between atoms: _76  and  _77
REMARK   35  A    between atoms: _76  and  _79
REMARK   36  A    between atoms: _79  and  _80
REMARK   37  A    between atoms: _83  and  _85
REMARK   38  A    between atoms: _85  and  _86
REMARK   39  A    between atoms: _85  and  _88
REMARK   40  A    between atoms: _88  and  _89
REMARK   41  A    between atoms: _92  and  _94
REMARK   42  A    between atoms: _94  and  _95
REMARK   43  A    between atoms: _94  and  _97
REMARK   44  A    between atoms: _100  and  _102
REMARK   45  A    between atoms: _102  and  _103
REMARK   46  A    between atoms: _102  and  _105
REMARK   47  A    between atoms: _105  and  _106
REMARK   48  A    between atoms: _106  and  _107
REMARK   49  A    between atoms: _107  and  _108
REMARK   50  A    between atoms: _108  and  _109
REMARK   51  A    between atoms: _113  and  _115
REMARK   52  A    between atoms: _115  and  _116
REMARK   53  A    between atoms: _115  and  _118
REMARK   54  A    between atoms: _118  and  _119
REMARK   55  A    between atoms: _119  and  _120
REMARK   56  A    between atoms: _122  and  _124
REMARK   57  A    between atoms: _124  and  _125
REMARK   58  A    between atoms: _124  and  _127
REMARK   59  A    between atoms: _127  and  _128
REMARK   60  A    between atoms: _131  and  _133
REMARK   61  A    between atoms: _133  and  _134
REMARK   62  A    between atoms: _136  and  _138
REMARK   63  A    between atoms: _138  and  _139
REMARK   64  A    between atoms: _141  and  _143
REMARK   65  A    between atoms: _143  and  _144
REMARK   66  A    between atoms: _143  and  _146
REMARK   67  A    between atoms: _146  and  _147
REMARK   68  A    between atoms: _150  and  _152
REMARK   69  A    between atoms: _152  and  _153
REMARK   70  A    between atoms: _155  and  _157
REMARK   71  A    between atoms: _157  and  _158
REMARK   72  A    between atoms: _160  and  _162
REMARK   73  A    between atoms: _162  and  _163
REMARK   74  A    between atoms: _162  and  _165
REMARK   75  A    between atoms: _165  and  _166
REMARK   76  A    between atoms: _172  and  _174
REMARK   77  A    between atoms: _174  and  _175
REMARK   78  A    between atoms: _174  and  _177
REMARK   79  A    between atoms: _177  and  _178
REMARK   80  A    between atoms: _181  and  _183
REMARK   81  A    between atoms: _183  and  _184
REMARK   82  A    between atoms: _183  and  _186
REMARK   83  A    between atoms: _189  and  _191
REMARK   84  A    between atoms: _191  and  _192
REMARK   85  A    between atoms: _191  and  _194
REMARK   86  A    between atoms: _194  and  _195
REMARK   87  A    between atoms: _199  and  _200
REMARK   88  A    between atoms: _205  and  _207
REMARK   89  A    between atoms: _207  and  _208
REMARK   90  A    between atoms: _207  and  _210
REMARK   91  A    between atoms: _210  and  _211
REMARK   92  A    between atoms: _215  and  _216
REMARK   93  A    between atoms: _221  and  _223
REMARK   94  A    between atoms: _223  and  _224
REMARK   95  A    between atoms: _223  and  _226
REMARK   96  A    between atoms: _229  and  _231
REMARK   97  A    between atoms: _231  and  _232
REMARK   98  A    between atoms: _231  and  _234
REMARK   99  A    between atoms: _234  and  _235
REMARK  100  A    between atoms: _240  and  _242
REMARK  101  A    between atoms: _242  and  _243
REMARK  102  A    between atoms: _242  and  _245
REMARK  103  A    between atoms: _245  and  _246
REMARK  104  A    between atoms: _249  and  _251
REMARK  105  A    between atoms: _251  and  _252
REMARK  106  A    between atoms: _251  and  _254
REMARK  107  A    between atoms: _254  and  _255
REMARK  108  A    between atoms: _258  and  _260
REMARK  109  A    between atoms: _260  and  _261
REMARK  110  A    between atoms: _263  and  _265
REMARK  111  A    between atoms: _265  and  _266
REMARK  112  A    between atoms: _265  and  _268
REMARK  113  A    between atoms: _268  and  _269
REMARK  114  A    between atoms: _269  and  _270
REMARK  115  A    between atoms: _270  and  _271
REMARK  116  A    between atoms: _280  and  _282
REMARK  117  A    between atoms: _282  and  _283
REMARK  118  A    between atoms: _282  and  _285
REMARK  119  A    between atoms: _285  and  _286
REMARK  120  A    between atoms: _291  and  _293
REMARK  121  A    between atoms: _293  and  _294
REMARK  122  A    between atoms: _293  and  _296
REMARK  123  A    between atoms: _296  and  _297
REMARK  124  A    between atoms: _297  and  _298
REMARK  125  A    between atoms: _298  and  _299
REMARK  126  A    between atoms: _308  and  _310
REMARK  127  A    between atoms: _310  and  _311
REMARK  128  A    between atoms: _310  and  _313
REMARK  129  A    between atoms: _313  and  _314
REMARK  130  A    between atoms: _317  and  _319
REMARK  131  A    between atoms: _319  and  _320
REMARK  132  A    between atoms: _319  and  _322
REMARK  133  A    between atoms: _322  and  _323
REMARK  134  A    between atoms: _326  and  _328
REMARK  135  A    between atoms: _328  and  _329
REMARK  136  A    between atoms: _328  and  _331
REMARK  137  A    between atoms: _331  and  _332
REMARK  138  A    between atoms: _335  and  _337
REMARK  139  A    between atoms: _337  and  _338
REMARK  140  A    between atoms: _337  and  _340
REMARK  141  A    between atoms: _340  and  _341
REMARK  142  A    between atoms: _344  and  _346
REMARK  143  A    between atoms: _346  and  _347
REMARK  144  A    between atoms: _349  and  _351
REMARK  145  A    between atoms: _351  and  _352
REMARK  146  A    between atoms: _355  and  _357
REMARK  147  A    between atoms: _357  and  _358
REMARK  148  A    between atoms: _357  and  _360
REMARK  149  A    between atoms: _360  and  _361
REMARK  150  A    between atoms: _364  and  _366
REMARK  151  A    between atoms: _366  and  _367
REMARK  152  A    between atoms: _366  and  _369
REMARK  153  A    between atoms: _369  and  _370
REMARK  154  A    between atoms: _373  and  _375
REMARK  155  A    between atoms: _375  and  _376
REMARK  156  A    between atoms: _375  and  _378
REMARK  157  A    between atoms: _378  and  _379
REMARK  158  A    between atoms: _382  and  _384
REMARK  159  A    between atoms: _384  and  _385
REMARK  160  A    between atoms: _384  and  _387
REMARK  161  A    between atoms: _390  and  _392
REMARK  162  A    between atoms: _392  and  _393
REMARK  163  A    between atoms: _392  and  _395
REMARK  164  A    between atoms: _395  and  _396
REMARK  165  A    between atoms: _396  and  _397
REMARK  166  A    between atoms: _397  and  _398
REMARK  167  A    between atoms: _398  and  _399
REMARK  168  A    between atoms: _403  and  _405
REMARK  169  A    between atoms: _405  and  _406
REMARK  170  A    between atoms: _405  and  _408
REMARK  171  A    between atoms: _408  and  _409
REMARK  172  A    between atoms: _409  and  _410
REMARK  173  A    between atoms: _412  and  _414
REMARK  174  A    between atoms: _414  and  _415
REMARK  175  A    between atoms: _414  and  _417
REMARK  176  A    between atoms: _417  and  _418
REMARK  177  A    between atoms: _421  and  _423
REMARK  178  A    between atoms: _423  and  _424
REMARK  179  A    between atoms: _426  and  _428
REMARK  180  A    between atoms: _428  and  _429
REMARK  181  A    between atoms: _431  and  _433
REMARK  182  A    between atoms: _433  and  _434
REMARK  183  A    between atoms: _433  and  _436
REMARK  184  A    between atoms: _436  and  _437
REMARK  185  A    between atoms: _440  and  _442
REMARK  186  A    between atoms: _442  and  _443
REMARK  187  A    between atoms: _445  and  _447
REMARK  188  A    between atoms: _447  and  _448
REMARK  189  A    between atoms: _450  and  _452
REMARK  190  A    between atoms: _452  and  _453
REMARK  191  A    between atoms: _452  and  _455
REMARK  192  A    between atoms: _455  and  _456
REMARK  193  A    between atoms: _462  and  _464
REMARK  194  A    between atoms: _464  and  _465
REMARK  195  A    between atoms: _464  and  _467
REMARK  196  A    between atoms: _467  and  _468
REMARK  197  A    between atoms: _471  and  _473
REMARK  198  A    between atoms: _473  and  _474
REMARK  199  A    between atoms: _473  and  _476
REMARK  200  A    between atoms: _476  and  _477
REMARK  201  A    between atoms: _480  and  _482
REMARK  202  A    between atoms: _482  and  _483
REMARK  203  A    between atoms: _482  and  _485
REMARK  204  A    between atoms: _485  and  _486
REMARK  205  A    between atoms: _490  and  _491
REMARK  206  A    between atoms: _496  and  _498
REMARK  207  A    between atoms: _498  and  _499
REMARK  208  A    between atoms: _498  and  _501
REMARK  209  A    between atoms: _504  and  _506
REMARK  210  A    between atoms: _506  and  _507
REMARK  211  A    between atoms: _506  and  _509
REMARK  212  A    between atoms: _509  and  _510
REMARK  213  A    between atoms: _515  and  _517
REMARK  214  A    between atoms: _517  and  _518
REMARK  215  A    between atoms: _517  and  _520
REMARK  216  A    between atoms: _520  and  _521
REMARK  217  A    between atoms: _524  and  _526
REMARK  218  A    between atoms: _526  and  _527
REMARK  219  A    between atoms: _526  and  _529
REMARK  220  A    between atoms: _529  and  _530
REMARK  221  A    between atoms: _533  and  _535
REMARK  222  A    between atoms: _535  and  _536
REMARK  223  A    between atoms: _538  and  _540
REMARK  224  A    between atoms: _540  and  _541
REMARK  225  A    between atoms: _540  and  _543
REMARK  226  A    between atoms: _543  and  _544
REMARK  227  A    between atoms: _544  and  _545
REMARK  228  A    between atoms: _545  and  _546
REMARK  229  A    between atoms: _555  and  _557
REMARK  230  A    between atoms: _557  and  _558
REMARK  231  A    between atoms: _557  and  _560
REMARK  232  A    between atoms: _560  and  _561
REMARK                            x       y       z     vdW  Elec       q    Type
REMARK                         _______ _______ _______ _____ _____    ______ ____
ROOT
ATOM      1  O   HOH     1      10.898  14.983  16.505  0.00  0.00    +0.000 OA
ENDROOT
TORSDOF 0
REMARK  Name = ../refined-set-2016/3djk/3djk_pocket.pdb
REMARK  232 active torsions:
REMARK  status: ('A' for Active; 'I' for Inactive)
REMARK    1  A    between atoms: _1  and  _3
REMARK    2  A    between atoms: _3  and  _4
REMARK    3  A    between atoms: _3  and  _6
REMARK    4  A    between atoms: _6  and  _7
REMARK    5  A    between atoms: _7  and  _8
REMARK    6  A    between atoms: _8  and  _9
REMARK    7  A    between atoms: _9  and  _11
REMARK    8  A    between atoms: _11  and  _15
REMARK    9  A    between atoms: _18  and  _20
REMARK   10  A    between atoms: _20  and  _21
REMARK   11  A    between atoms: _20  and  _23
REMARK   12  A    between atoms: _23  and  _24
REMARK   13  A    between atoms: _27  and  _29
REMARK   14  A    between atoms: _29  and  _30
REMARK   15  A    between atoms: _29  and  _32
REMARK   16  A    between atoms: _32  and  _33
REMARK   17  A    between atoms: _36  and  _38
REMARK   18  A    between atoms: _38  and  _39
REMARK   19  A    between atoms: _38  and  _41
REMARK   20  A    between atoms: _41  and  _42
REMARK   21  A    between atoms: _45  and  _47
REMARK   22  A    between atoms: _47  and  _48
REMARK   23  A    between atoms: _47  and  _50
REMARK   24  A    between atoms: _50  and  _51
REMARK   25  A    between atoms: _54  and  _56
REMARK   26  A    between atoms: _56  and  _57
REMARK   27  A    between atoms: _59  and  _61
REMARK   28  A    between atoms: _61  and  _62
REMARK   29  A    between atoms: _65  and  _67
REMARK   30  A    between atoms: _67  and  _68
REMARK   31  A    between atoms: _67  and  _70
REMARK   32  A    between atoms: _70  and  _71
REMARK   33  A    between atoms: _74  and  _76
REMARK   34  A    between atoms: _76  and  _77
REMARK   35  A    between atoms: _76  and  _79
REMARK   36  A    between atoms: _79  and  _80
REMARK   37  A    between atoms: _83  and  _85
REMARK   38  A    between atoms: _85  and  _86
REMARK   39  A    between atoms: _85  and  _88
REMARK   40  A    between atoms: _88  and  _89
REMARK   41  A    between atoms: _92  and  _94
REMARK   42  A    between atoms: _94  and  _95
REMARK   43  A    between atoms: _94  and  _97
REMARK   44  A    between atoms: _100  and  _102
REMARK   45  A    between atoms: _102  and  _103
REMARK   46  A    between atoms: _102  and  _105
REMARK   47  A    between atoms: _105  and  _106
REMARK   48  A    between atoms: _106  and  _107
REMARK   49  A    between atoms: _107  and  _108
REMARK   50  A    between atoms: _108  and  _109
REMARK   51  A    between atoms: _113  and  _115
REMARK   52  A    between atoms: _115  and  _116
REMARK   53  A    between atoms: _115  and  _118
REMARK   54  A    between atoms: _118  and  _119
REMARK   55  A    between atoms: _119  and  _120
REMARK   56  A    between atoms: _122  and  _124
REMARK   57  A    between atoms: _124  and  _125
REMARK   58  A    between atoms: _124  and  _127
REMARK   59  A    between atoms: _127  and  _128
REMARK   60  A    between atoms: _131  and  _133
REMARK   61  A    between atoms: _133  and  _134
REMARK   62  A    between atoms: _136  and  _138
REMARK   63  A    between atoms: _138  and  _139
REMARK   64  A    between atoms: _141  and  _143
REMARK   65  A    between atoms: _143  and  _144
REMARK   66  A    between atoms: _143  and  _146
REMARK   67  A    between atoms: _146  and  _147
REMARK   68  A    between atoms: _150  and  _152
REMARK   69  A    between atoms: _152  and  _153
REMARK   70  A    between atoms: _155  and  _157
REMARK   71  A    between atoms: _157  and  _158
REMARK   72  A    between atoms: _160  and  _162
REMARK   73  A    between atoms: _162  and  _163
REMARK   74  A    between atoms: _162  and  _165
REMARK   75  A    between atoms: _165  and  _166
REMARK   76  A    between atoms: _172  and  _174
REMARK   77  A    between atoms: _174  and  _175
REMARK   78  A    between atoms: _174  and  _177
REMARK   79  A    between atoms: _177  and  _178
REMARK   80  A    between atoms: _181  and  _183
REMARK   81  A    between atoms: _183  and  _184
REMARK   82  A    between atoms: _183  and  _186
REMARK   83  A    between atoms: _189  and  _191
REMARK   84  A    between atoms: _191  and  _192
REMARK   85  A    between atoms: _191  and  _194
REMARK   86  A    between atoms: _194  and  _195
REMARK   87  A    between atoms: _199  and  _200
REMARK   88  A    between atoms: _205  and  _207
REMARK   89  A    between atoms: _207  and  _208
REMARK   90  A    between atoms: _207  and  _210
REMARK   91  A    between atoms: _210  and  _211
REMARK   92  A    between atoms: _215  and  _216
REMARK   93  A    between atoms: _221  and  _223
REMARK   94  A    between atoms: _223  and  _224
REMARK   95  A    between atoms: _223  and  _226
REMARK   96  A    between atoms: _229  and  _231
REMARK   97  A    between atoms: _231  and  _232
REMARK   98  A    between atoms: _231  and  _234
REMARK   99  A    between atoms: _234  and  _235
REMARK  100  A    between atoms: _240  and  _242
REMARK  101  A    between atoms: _242  and  _243
REMARK  102  A    between atoms: _242  and  _245
REMARK  103  A    between atoms: _245  and  _246
REMARK  104  A    between atoms: _249  and  _251
REMARK  105  A    between atoms: _251  and  _252
REMARK  106  A    between atoms: _251  and  _254
REMARK  107  A    between atoms: _254  and  _255
REMARK  108  A    between atoms: _258  and  _260
REMARK  109  A    between atoms: _260  and  _261
REMARK  110  A    between atoms: _263  and  _265
REMARK  111  A    between atoms: _265  and  _266
REMARK  112  A    between atoms: _265  and  _268
REMARK  113  A    between atoms: _268  and  _269
REMARK  114  A    between atoms: _269  and  _270
REMARK  115  A    between atoms: _270  and  _271
REMARK  116  A    between atoms: _280  and  _282
REMARK  117  A    between atoms: _282  and  _283
REMARK  118  A    between atoms: _282  and  _285
REMARK  119  A    between atoms: _285  and  _286
REMARK  120  A    between atoms: _291  and  _293
REMARK  121  A    between atoms: _293  and  _294
REMARK  122  A    between atoms: _293  and  _296
REMARK  123  A    between atoms: _296  and  _297
REMARK  124  A    between atoms: _297  and  _298
REMARK  125  A    between atoms: _298  and  _299
REMARK  126  A    between atoms: _308  and  _310
REMARK  127  A    between atoms: _310  and  _311
REMARK  128  A    between atoms: _310  and  _313
REMARK  129  A    between atoms: _313  and  _314
REMARK  130  A    between atoms: _317  and  _319
REMARK  131  A    between atoms: _319  and  _320
REMARK  132  A    between atoms: _319  and  _322
REMARK  133  A    between atoms: _322  and  _323
REMARK  134  A    between atoms: _326  and  _328
REMARK  135  A    between atoms: _328  and  _329
REMARK  136  A    between atoms: _328  and  _331
REMARK  137  A    between atoms: _331  and  _332
REMARK  138  A    between atoms: _335  and  _337
REMARK  139  A    between atoms: _337  and  _338
REMARK  140  A    between atoms: _337  and  _340
REMARK  141  A    between atoms: _340  and  _341
REMARK  142  A    between atoms: _344  and  _346
REMARK  143  A    between atoms: _346  and  _347
REMARK  144  A    between atoms: _349  and  _351
REMARK  145  A    between atoms: _351  and  _352
REMARK  146  A    between atoms: _355  and  _357
REMARK  147  A    between atoms: _357  and  _358
REMARK  148  A    between atoms: _357  and  _360
REMARK  149  A    between atoms: _360  and  _361
REMARK  150  A    between atoms: _364  and  _366
REMARK  151  A    between atoms: _366  and  _367
REMARK  152  A    between atoms: _366  and  _369
REMARK  153  A    between atoms: _369  and  _370
REMARK  154  A    between atoms: _373  and  _375
REMARK  155  A    between atoms: _375  and  _376
REMARK  156  A    between atoms: _375  and  _378
REMARK  157  A    between atoms: _378  and  _379
REMARK  158  A    between atoms: _382  and  _384
REMARK  159  A    between atoms: _384  and  _385
REMARK  160  A    between atoms: _384  and  _387
REMARK  161  A    between atoms: _390  and  _392
REMARK  162  A    between atoms: _392  and  _393
REMARK  163  A    between atoms: _392  and  _395
REMARK  164  A    between atoms: _395  and  _396
REMARK  165  A    between atoms: _396  and  _397
REMARK  166  A    between atoms: _397  and  _398
REMARK  167  A    between atoms: _398  and  _399
REMARK  168  A    between atoms: _403  and  _405
REMARK  169  A    between atoms: _405  and  _406
REMARK  170  A    between atoms: _405  and  _408
REMARK  171  A    between atoms: _408  and  _409
REMARK  172  A    between atoms: _409  and  _410
REMARK  173  A    between atoms: _412  and  _414
REMARK  174  A    between atoms: _414  and  _415
REMARK  175  A    between atoms: _414  and  _417
REMARK  176  A    between atoms: _417  and  _418
REMARK  177  A    between atoms: _421  and  _423
REMARK  178  A    between atoms: _423  and  _424
REMARK  179  A    between atoms: _426  and  _428
REMARK  180  A    between atoms: _428  and  _429
REMARK  181  A    between atoms: _431  and  _433
REMARK  182  A    between atoms: _433  and  _434
REMARK  183  A    between atoms: _433  and  _436
REMARK  184  A    between atoms: _436  and  _437
REMARK  185  A    between atoms: _440  and  _442
REMARK  186  A    between atoms: _442  and  _443
REMARK  187  A    between atoms: _445  and  _447
REMARK  188  A    between atoms: _447  and  _448
REMARK  189  A    between atoms: _450  and  _452
REMARK  190  A    between atoms: _452  and  _453
REMARK  191  A    between atoms: _452  and  _455
REMARK  192  A    between atoms: _455  and  _456
REMARK  193  A    between atoms: _462  and  _464
REMARK  194  A    between atoms: _464  and  _465
REMARK  195  A    between atoms: _464  and  _467
REMARK  196  A    between atoms: _467  and  _468
REMARK  197  A    between atoms: _471  and  _473
REMARK  198  A    between atoms: _473  and  _474
REMARK  199  A    between atoms: _473  and  _476
REMARK  200  A    between atoms: _476  and  _477
REMARK  201  A    between atoms: _480  and  _482
REMARK  202  A    between atoms: _482  and  _483
REMARK  203  A    between atoms: _482  and  _485
REMARK  204  A    between atoms: _485  and  _486
REMARK  205  A    between atoms: _490  and  _491
REMARK  206  A    between atoms: _496  and  _498
REMARK  207  A    between atoms: _498  and  _499
REMARK  208  A    between atoms: _498  and  _501
REMARK  209  A    between atoms: _504  and  _506
REMARK  210  A    between atoms: _506  and  _507
REMARK  211  A    between atoms: _506  and  _509
REMARK  212  A    between atoms: _509  and  _510
REMARK  213  A    between atoms: _515  and  _517
REMARK  214  A    between atoms: _517  and  _518
REMARK  215  A    between atoms: _517  and  _520
REMARK  216  A    between atoms: _520  and  _521
REMARK  217  A    between atoms: _524  and  _526
REMARK  218  A    between atoms: _526  and  _527
REMARK  219  A    between atoms: _526  and  _529
REMARK  220  A    between atoms: _529  and  _530
REMARK  221  A    between atoms: _533  and  _535
REMARK  222  A    between atoms: _535  and  _536
REMARK  223  A    between atoms: _538  and  _540
REMARK  224  A    between atoms: _540  and  _541
REMARK  225  A    between atoms: _540  and  _543
REMARK  226  A    between atoms: _543  and  _544
REMARK  227  A    between atoms: _544  and  _545
REMARK  228  A    between atoms: _545  and  _546
REMARK  229  A    between atoms: _555  and  _557
REMARK  230  A    between atoms: _557  and  _558
REMARK  231  A    between atoms: _557  and  _560
REMARK  232  A    between atoms: _560  and  _561
REMARK                            x       y       z     vdW  Elec       q    Type
REMARK                         _______ _______ _______ _____ _____    ______ ____
ROOT
ATOM      1  O   HOH     1      15.463  15.750  11.736  0.00  0.00    +0.000 OA
ENDROOT
TORSDOF 0
REMARK  Name = ../refined-set-2016/3djk/3djk_pocket.pdb
REMARK  232 active torsions:
REMARK  status: ('A' for Active; 'I' for Inactive)
REMARK    1  A    between atoms: _1  and  _3
REMARK    2  A    between atoms: _3  and  _4
REMARK    3  A    between atoms: _3  and  _6
REMARK    4  A    between atoms: _6  and  _7
REMARK    5  A    between atoms: _7  and  _8
REMARK    6  A    between atoms: _8  and  _9
REMARK    7  A    between atoms: _9  and  _11
REMARK    8  A    between atoms: _11  and  _15
REMARK    9  A    between atoms: _18  and  _20
REMARK   10  A    between atoms: _20  and  _21
REMARK   11  A    between atoms: _20  and  _23
REMARK   12  A    between atoms: _23  and  _24
REMARK   13  A    between atoms: _27  and  _29
REMARK   14  A    between atoms: _29  and  _30
REMARK   15  A    between atoms: _29  and  _32
REMARK   16  A    between atoms: _32  and  _33
REMARK   17  A    between atoms: _36  and  _38
REMARK   18  A    between atoms: _38  and  _39
REMARK   19  A    between atoms: _38  and  _41
REMARK   20  A    between atoms: _41  and  _42
REMARK   21  A    between atoms: _45  and  _47
REMARK   22  A    between atoms: _47  and  _48
REMARK   23  A    between atoms: _47  and  _50
REMARK   24  A    between atoms: _50  and  _51
REMARK   25  A    between atoms: _54  and  _56
REMARK   26  A    between atoms: _56  and  _57
REMARK   27  A    between atoms: _59  and  _61
REMARK   28  A    between atoms: _61  and  _62
REMARK   29  A    between atoms: _65  and  _67
REMARK   30  A    between atoms: _67  and  _68
REMARK   31  A    between atoms: _67  and  _70
REMARK   32  A    between atoms: _70  and  _71
REMARK   33  A    between atoms: _74  and  _76
REMARK   34  A    between atoms: _76  and  _77
REMARK   35  A    between atoms: _76  and  _79
REMARK   36  A    between atoms: _79  and  _80
REMARK   37  A    between atoms: _83  and  _85
REMARK   38  A    between atoms: _85  and  _86
REMARK   39  A    between atoms: _85  and  _88
REMARK   40  A    between atoms: _88  and  _89
REMARK   41  A    between atoms: _92  and  _94
REMARK   42  A    between atoms: _94  and  _95
REMARK   43  A    between atoms: _94  and  _97
REMARK   44  A    between atoms: _100  and  _102
REMARK   45  A    between atoms: _102  and  _103
REMARK   46  A    between atoms: _102  and  _105
REMARK   47  A    between atoms: _105  and  _106
REMARK   48  A    between atoms: _106  and  _107
REMARK   49  A    between atoms: _107  and  _108
REMARK   50  A    between atoms: _108  and  _109
REMARK   51  A    between atoms: _113  and  _115
REMARK   52  A    between atoms: _115  and  _116
REMARK   53  A    between atoms: _115  and  _118
REMARK   54  A    between atoms: _118  and  _119
REMARK   55  A    between atoms: _119  and  _120
REMARK   56  A    between atoms: _122  and  _124
REMARK   57  A    between atoms: _124  and  _125
REMARK   58  A    between atoms: _124  and  _127
REMARK   59  A    between atoms: _127  and  _128
REMARK   60  A    between atoms: _131  and  _133
REMARK   61  A    between atoms: _133  and  _134
REMARK   62  A    between atoms: _136  and  _138
REMARK   63  A    between atoms: _138  and  _139
REMARK   64  A    between atoms: _141  and  _143
REMARK   65  A    between atoms: _143  and  _144
REMARK   66  A    between atoms: _143  and  _146
REMARK   67  A    between atoms: _146  and  _147
REMARK   68  A    between atoms: _150  and  _152
REMARK   69  A    between atoms: _152  and  _153
REMARK   70  A    between atoms: _155  and  _157
REMARK   71  A    between atoms: _157  and  _158
REMARK   72  A    between atoms: _160  and  _162
REMARK   73  A    between atoms: _162  and  _163
REMARK   74  A    between atoms: _162  and  _165
REMARK   75  A    between atoms: _165  and  _166
REMARK   76  A    between atoms: _172  and  _174
REMARK   77  A    between atoms: _174  and  _175
REMARK   78  A    between atoms: _174  and  _177
REMARK   79  A    between atoms: _177  and  _178
REMARK   80  A    between atoms: _181  and  _183
REMARK   81  A    between atoms: _183  and  _184
REMARK   82  A    between atoms: _183  and  _186
REMARK   83  A    between atoms: _189  and  _191
REMARK   84  A    between atoms: _191  and  _192
REMARK   85  A    between atoms: _191  and  _194
REMARK   86  A    between atoms: _194  and  _195
REMARK   87  A    between atoms: _199  and  _200
REMARK   88  A    between atoms: _205  and  _207
REMARK   89  A    between atoms: _207  and  _208
REMARK   90  A    between atoms: _207  and  _210
REMARK   91  A    between atoms: _210  and  _211
REMARK   92  A    between atoms: _215  and  _216
REMARK   93  A    between atoms: _221  and  _223
REMARK   94  A    between atoms: _223  and  _224
REMARK   95  A    between atoms: _223  and  _226
REMARK   96  A    between atoms: _229  and  _231
REMARK   97  A    between atoms: _231  and  _232
REMARK   98  A    between atoms: _231  and  _234
REMARK   99  A    between atoms: _234  and  _235
REMARK  100  A    between atoms: _240  and  _242
REMARK  101  A    between atoms: _242  and  _243
REMARK  102  A    between atoms: _242  and  _245
REMARK  103  A    between atoms: _245  and  _246
REMARK  104  A    between atoms: _249  and  _251
REMARK  105  A    between atoms: _251  and  _252
REMARK  106  A    between atoms: _251  and  _254
REMARK  107  A    between atoms: _254  and  _255
REMARK  108  A    between atoms: _258  and  _260
REMARK  109  A    between atoms: _260  and  _261
REMARK  110  A    between atoms: _263  and  _265
REMARK  111  A    between atoms: _265  and  _266
REMARK  112  A    between atoms: _265  and  _268
REMARK  113  A    between atoms: _268  and  _269
REMARK  114  A    between atoms: _269  and  _270
REMARK  115  A    between atoms: _270  and  _271
REMARK  116  A    between atoms: _280  and  _282
REMARK  117  A    between atoms: _282  and  _283
REMARK  118  A    between atoms: _282  and  _285
REMARK  119  A    between atoms: _285  and  _286
REMARK  120  A    between atoms: _291  and  _293
REMARK  121  A    between atoms: _293  and  _294
REMARK  122  A    between atoms: _293  and  _296
REMARK  123  A    between atoms: _296  and  _297
REMARK  124  A    between atoms: _297  and  _298
REMARK  125  A    between atoms: _298  and  _299
REMARK  126  A    between atoms: _308  and  _310
REMARK  127  A    between atoms: _310  and  _311
REMARK  128  A    between atoms: _310  and  _313
REMARK  129  A    between atoms: _313  and  _314
REMARK  130  A    between atoms: _317  and  _319
REMARK  131  A    between atoms: _319  and  _320
REMARK  132  A    between atoms: _319  and  _322
REMARK  133  A    between atoms: _322  and  _323
REMARK  134  A    between atoms: _326  and  _328
REMARK  135  A    between atoms: _328  and  _329
REMARK  136  A    between atoms: _328  and  _331
REMARK  137  A    between atoms: _331  and  _332
REMARK  138  A    between atoms: _335  and  _337
REMARK  139  A    between atoms: _337  and  _338
REMARK  140  A    between atoms: _337  and  _340
REMARK  141  A    between atoms: _340  and  _341
REMARK  142  A    between atoms: _344  and  _346
REMARK  143  A    between atoms: _346  and  _347
REMARK  144  A    between atoms: _349  and  _351
REMARK  145  A    between atoms: _351  and  _352
REMARK  146  A    between atoms: _355  and  _357
REMARK  147  A    between atoms: _357  and  _358
REMARK  148  A    between atoms: _357  and  _360
REMARK  149  A    between atoms: _360  and  _361
REMARK  150  A    between atoms: _364  and  _366
REMARK  151  A    between atoms: _366  and  _367
REMARK  152  A    between atoms: _366  and  _369
REMARK  153  A    between atoms: _369  and  _370
REMARK  154  A    between atoms: _373  and  _375
REMARK  155  A    between atoms: _375  and  _376
REMARK  156  A    between atoms: _375  and  _378
REMARK  157  A    between atoms: _378  and  _379
REMARK  158  A    between atoms: _382  and  _384
REMARK  159  A    between atoms: _384  and  _385
REMARK  160  A    between atoms: _384  and  _387
REMARK  161  A    between atoms: _390  and  _392
REMARK  162  A    between atoms: _392  and  _393
REMARK  163  A    between atoms: _392  and  _395
REMARK  164  A    between atoms: _395  and  _396
REMARK  165  A    between atoms: _396  and  _397
REMARK  166  A    between atoms: _397  and  _398
REMARK  167  A    between atoms: _398  and  _399
REMARK  168  A    between atoms: _403  and  _405
REMARK  169  A    between atoms: _405  and  _406
REMARK  170  A    between atoms: _405  and  _408
REMARK  171  A    between atoms: _408  and  _409
REMARK  172  A    between atoms: _409  and  _410
REMARK  173  A    between atoms: _412  and  _414
REMARK  174  A    between atoms: _414  and  _415
REMARK  175  A    between atoms: _414  and  _417
REMARK  176  A    between atoms: _417  and  _418
REMARK  177  A    between atoms: _421  and  _423
REMARK  178  A    between atoms: _423  and  _424
REMARK  179  A    between atoms: _426  and  _428
REMARK  180  A    between atoms: _428  and  _429
REMARK  181  A    between atoms: _431  and  _433
REMARK  182  A    between atoms: _433  and  _434
REMARK  183  A    between atoms: _433  and  _436
REMARK  184  A    between atoms: _436  and  _437
REMARK  185  A    between atoms: _440  and  _442
REMARK  186  A    between atoms: _442  and  _443
REMARK  187  A    between atoms: _445  and  _447
REMARK  188  A    between atoms: _447  and  _448
REMARK  189  A    between atoms: _450  and  _452
REMARK  190  A    between atoms: _452  and  _453
REMARK  191  A    between atoms: _452  and  _455
REMARK  192  A    between atoms: _455  and  _456
REMARK  193  A    between atoms: _462  and  _464
REMARK  194  A    between atoms: _464  and  _465
REMARK  195  A    between atoms: _464  and  _467
REMARK  196  A    between atoms: _467  and  _468
REMARK  197  A    between atoms: _471  and  _473
REMARK  198  A    between atoms: _473  and  _474
REMARK  199  A    between atoms: _473  and  _476
REMARK  200  A    between atoms: _476  and  _477
REMARK  201  A    between atoms: _480  and  _482
REMARK  202  A    between atoms: _482  and  _483
REMARK  203  A    between atoms: _482  and  _485
REMARK  204  A    between atoms: _485  and  _486
REMARK  205  A    between atoms: _490  and  _491
REMARK  206  A    between atoms: _496  and  _498
REMARK  207  A    between atoms: _498  and  _499
REMARK  208  A    between atoms: _498  and  _501
REMARK  209  A    between atoms: _504  and  _506
REMARK  210  A    between atoms: _506  and  _507
REMARK  211  A    between atoms: _506  and  _509
REMARK  212  A    between atoms: _509  and  _510
REMARK  213  A    between atoms: _515  and  _517
REMARK  214  A    between atoms: _517  and  _518
REMARK  215  A    between atoms: _517  and  _520
REMARK  216  A    between atoms: _520  and  _521
REMARK  217  A    between atoms: _524  and  _526
REMARK  218  A    between atoms: _526  and  _527
REMARK  219  A    between atoms: _526  and  _529
REMARK  220  A    between atoms: _529  and  _530
REMARK  221  A    between atoms: _533  and  _535
REMARK  222  A    between atoms: _535  and  _536
REMARK  223  A    between atoms: _538  and  _540
REMARK  224  A    between atoms: _540  and  _541
REMARK  225  A    between atoms: _540  and  _543
REMARK  226  A    between atoms: _543  and  _544
REMARK  227  A    between atoms: _544  and  _545
REMARK  228  A    between atoms: _545  and  _546
REMARK  229  A    between atoms: _555  and  _557
REMARK  230  A    between atoms: _557  and  _558
REMARK  231  A    between atoms: _557  and  _560
REMARK  232  A    between atoms: _560  and  _561
REMARK                            x       y       z     vdW  Elec       q    Type
REMARK                         _______ _______ _______ _____ _____    ______ ____
ROOT
ATOM      1  O   HOH     1      19.370  16.962   9.167  0.00  0.00    +0.000 OA
ENDROOT
TORSDOF 0
REMARK  Name = ../refined-set-2016/3djk/3djk_pocket.pdb
REMARK  232 active torsions:
REMARK  status: ('A' for Active; 'I' for Inactive)
REMARK    1  A    between atoms: _1  and  _3
REMARK    2  A    between atoms: _3  and  _4
REMARK    3  A    between atoms: _3  and  _6
REMARK    4  A    between atoms: _6  and  _7
REMARK    5  A    between atoms: _7  and  _8
REMARK    6  A    between atoms: _8  and  _9
REMARK    7  A    between atoms: _9  and  _11
REMARK    8  A    between atoms: _11  and  _15
REMARK    9  A    between atoms: _18  and  _20
REMARK   10  A    between atoms: _20  and  _21
REMARK   11  A    between atoms: _20  and  _23
REMARK   12  A    between atoms: _23  and  _24
REMARK   13  A    between atoms: _27  and  _29
REMARK   14  A    between atoms: _29  and  _30
REMARK   15  A    between atoms: _29  and  _32
REMARK   16  A    between atoms: _32  and  _33
REMARK   17  A    between atoms: _36  and  _38
REMARK   18  A    between atoms: _38  and  _39
REMARK   19  A    between atoms: _38  and  _41
REMARK   20  A    between atoms: _41  and  _42
REMARK   21  A    between atoms: _45  and  _47
REMARK   22  A    between atoms: _47  and  _48
REMARK   23  A    between atoms: _47  and  _50
REMARK   24  A    between atoms: _50  and  _51
REMARK   25  A    between atoms: _54  and  _56
REMARK   26  A    between atoms: _56  and  _57
REMARK   27  A    between atoms: _59  and  _61
REMARK   28  A    between atoms: _61  and  _62
REMARK   29  A    between atoms: _65  and  _67
REMARK   30  A    between atoms: _67  and  _68
REMARK   31  A    between atoms: _67  and  _70
REMARK   32  A    between atoms: _70  and  _71
REMARK   33  A    between atoms: _74  and  _76
REMARK   34  A    between atoms: _76  and  _77
REMARK   35  A    between atoms: _76  and  _79
REMARK   36  A    between atoms: _79  and  _80
REMARK   37  A    between atoms: _83  and  _85
REMARK   38  A    between atoms: _85  and  _86
REMARK   39  A    between atoms: _85  and  _88
REMARK   40  A    between atoms: _88  and  _89
REMARK   41  A    between atoms: _92  and  _94
REMARK   42  A    between atoms: _94  and  _95
REMARK   43  A    between atoms: _94  and  _97
REMARK   44  A    between atoms: _100  and  _102
REMARK   45  A    between atoms: _102  and  _103
REMARK   46  A    between atoms: _102  and  _105
REMARK   47  A    between atoms: _105  and  _106
REMARK   48  A    between atoms: _106  and  _107
REMARK   49  A    between atoms: _107  and  _108
REMARK   50  A    between atoms: _108  and  _109
REMARK   51  A    between atoms: _113  and  _115
REMARK   52  A    between atoms: _115  and  _116
REMARK   53  A    between atoms: _115  and  _118
REMARK   54  A    between atoms: _118  and  _119
REMARK   55  A    between atoms: _119  and  _120
REMARK   56  A    between atoms: _122  and  _124
REMARK   57  A    between atoms: _124  and  _125
REMARK   58  A    between atoms: _124  and  _127
REMARK   59  A    between atoms: _127  and  _128
REMARK   60  A    between atoms: _131  and  _133
REMARK   61  A    between atoms: _133  and  _134
REMARK   62  A    between atoms: _136  and  _138
REMARK   63  A    between atoms: _138  and  _139
REMARK   64  A    between atoms: _141  and  _143
REMARK   65  A    between atoms: _143  and  _144
REMARK   66  A    between atoms: _143  and  _146
REMARK   67  A    between atoms: _146  and  _147
REMARK   68  A    between atoms: _150  and  _152
REMARK   69  A    between atoms: _152  and  _153
REMARK   70  A    between atoms: _155  and  _157
REMARK   71  A    between atoms: _157  and  _158
REMARK   72  A    between atoms: _160  and  _162
REMARK   73  A    between atoms: _162  and  _163
REMARK   74  A    between atoms: _162  and  _165
REMARK   75  A    between atoms: _165  and  _166
REMARK   76  A    between atoms: _172  and  _174
REMARK   77  A    between atoms: _174  and  _175
REMARK   78  A    between atoms: _174  and  _177
REMARK   79  A    between atoms: _177  and  _178
REMARK   80  A    between atoms: _181  and  _183
REMARK   81  A    between atoms: _183  and  _184
REMARK   82  A    between atoms: _183  and  _186
REMARK   83  A    between atoms: _189  and  _191
REMARK   84  A    between atoms: _191  and  _192
REMARK   85  A    between atoms: _191  and  _194
REMARK   86  A    between atoms: _194  and  _195
REMARK   87  A    between atoms: _199  and  _200
REMARK   88  A    between atoms: _205  and  _207
REMARK   89  A    between atoms: _207  and  _208
REMARK   90  A    between atoms: _207  and  _210
REMARK   91  A    between atoms: _210  and  _211
REMARK   92  A    between atoms: _215  and  _216
REMARK   93  A    between atoms: _221  and  _223
REMARK   94  A    between atoms: _223  and  _224
REMARK   95  A    between atoms: _223  and  _226
REMARK   96  A    between atoms: _229  and  _231
REMARK   97  A    between atoms: _231  and  _232
REMARK   98  A    between atoms: _231  and  _234
REMARK   99  A    between atoms: _234  and  _235
REMARK  100  A    between atoms: _240  and  _242
REMARK  101  A    between atoms: _242  and  _243
REMARK  102  A    between atoms: _242  and  _245
REMARK  103  A    between atoms: _245  and  _246
REMARK  104  A    between atoms: _249  and  _251
REMARK  105  A    between atoms: _251  and  _252
REMARK  106  A    between atoms: _251  and  _254
REMARK  107  A    between atoms: _254  and  _255
REMARK  108  A    between atoms: _258  and  _260
REMARK  109  A    between atoms: _260  and  _261
REMARK  110  A    between atoms: _263  and  _265
REMARK  111  A    between atoms: _265  and  _266
REMARK  112  A    between atoms: _265  and  _268
REMARK  113  A    between atoms: _268  and  _269
REMARK  114  A    between atoms: _269  and  _270
REMARK  115  A    between atoms: _270  and  _271
REMARK  116  A    between atoms: _280  and  _282
REMARK  117  A    between atoms: _282  and  _283
REMARK  118  A    between atoms: _282  and  _285
REMARK  119  A    between atoms: _285  and  _286
REMARK  120  A    between atoms: _291  and  _293
REMARK  121  A    between atoms: _293  and  _294
REMARK  122  A    between atoms: _293  and  _296
REMARK  123  A    between atoms: _296  and  _297
REMARK  124  A    between atoms: _297  and  _298
REMARK  125  A    between atoms: _298  and  _299
REMARK  126  A    between atoms: _308  and  _310
REMARK  127  A    between atoms: _310  and  _311
REMARK  128  A    between atoms: _310  and  _313
REMARK  129  A    between atoms: _313  and  _314
REMARK  130  A    between atoms: _317  and  _319
REMARK  131  A    between atoms: _319  and  _320
REMARK  132  A    between atoms: _319  and  _322
REMARK  133  A    between atoms: _322  and  _323
REMARK  134  A    between atoms: _326  and  _328
REMARK  135  A    between atoms: _328  and  _329
REMARK  136  A    between atoms: _328  and  _331
REMARK  137  A    between atoms: _331  and  _332
REMARK  138  A    between atoms: _335  and  _337
REMARK  139  A    between atoms: _337  and  _338
REMARK  140  A    between atoms: _337  and  _340
REMARK  141  A    between atoms: _340  and  _341
REMARK  142  A    between atoms: _344  and  _346
REMARK  143  A    between atoms: _346  and  _347
REMARK  144  A    between atoms: _349  and  _351
REMARK  145  A    between atoms: _351  and  _352
REMARK  146  A    between atoms: _355  and  _357
REMARK  147  A    between atoms: _357  and  _358
REMARK  148  A    between atoms: _357  and  _360
REMARK  149  A    between atoms: _360  and  _361
REMARK  150  A    between atoms: _364  and  _366
REMARK  151  A    between atoms: _366  and  _367
REMARK  152  A    between atoms: _366  and  _369
REMARK  153  A    between atoms: _369  and  _370
REMARK  154  A    between atoms: _373  and  _375
REMARK  155  A    between atoms: _375  and  _376
REMARK  156  A    between atoms: _375  and  _378
REMARK  157  A    between atoms: _378  and  _379
REMARK  158  A    between atoms: _382  and  _384
REMARK  159  A    between atoms: _384  and  _385
REMARK  160  A    between atoms: _384  and  _387
REMARK  161  A    between atoms: _390  and  _392
REMARK  162  A    between atoms: _392  and  _393
REMARK  163  A    between atoms: _392  and  _395
REMARK  164  A    between atoms: _395  and  _396
REMARK  165  A    between atoms: _396  and  _397
REMARK  166  A    between atoms: _397  and  _398
REMARK  167  A    between atoms: _398  and  _399
REMARK  168  A    between atoms: _403  and  _405
REMARK  169  A    between atoms: _405  and  _406
REMARK  170  A    between atoms: _405  and  _408
REMARK  171  A    between atoms: _408  and  _409
REMARK  172  A    between atoms: _409  and  _410
REMARK  173  A    between atoms: _412  and  _414
REMARK  174  A    between atoms: _414  and  _415
REMARK  175  A    between atoms: _414  and  _417
REMARK  176  A    between atoms: _417  and  _418
REMARK  177  A    between atoms: _421  and  _423
REMARK  178  A    between atoms: _423  and  _424
REMARK  179  A    between atoms: _426  and  _428
REMARK  180  A    between atoms: _428  and  _429
REMARK  181  A    between atoms: _431  and  _433
REMARK  182  A    between atoms: _433  and  _434
REMARK  183  A    between atoms: _433  and  _436
REMARK  184  A    between atoms: _436  and  _437
REMARK  185  A    between atoms: _440  and  _442
REMARK  186  A    between atoms: _442  and  _443
REMARK  187  A    between atoms: _445  and  _447
REMARK  188  A    between atoms: _447  and  _448
REMARK  189  A    between atoms: _450  and  _452
REMARK  190  A    between atoms: _452  and  _453
REMARK  191  A    between atoms: _452  and  _455
REMARK  192  A    between atoms: _455  and  _456
REMARK  193  A    between atoms: _462  and  _464
REMARK  194  A    between atoms: _464  and  _465
REMARK  195  A    between atoms: _464  and  _467
REMARK  196  A    between atoms: _467  and  _468
REMARK  197  A    between atoms: _471  and  _473
REMARK  198  A    between atoms: _473  and  _474
REMARK  199  A    between atoms: _473  and  _476
REMARK  200  A    between atoms: _476  and  _477
REMARK  201  A    between atoms: _480  and  _482
REMARK  202  A    between atoms: _482  and  _483
REMARK  203  A    between atoms: _482  and  _485
REMARK  204  A    between atoms: _485  and  _486
REMARK  205  A    between atoms: _490  and  _491
REMARK  206  A    between atoms: _496  and  _498
REMARK  207  A    between atoms: _498  and  _499
REMARK  208  A    between atoms: _498  and  _501
REMARK  209  A    between atoms: _504  and  _506
REMARK  210  A    between atoms: _506  and  _507
REMARK  211  A    between atoms: _506  and  _509
REMARK  212  A    between atoms: _509  and  _510
REMARK  213  A    between atoms: _515  and  _517
REMARK  214  A    between atoms: _517  and  _518
REMARK  215  A    between atoms: _517  and  _520
REMARK  216  A    between atoms: _520  and  _521
REMARK  217  A    between atoms: _524  and  _526
REMARK  218  A    between atoms: _526  and  _527
REMARK  219  A    between atoms: _526  and  _529
REMARK  220  A    between atoms: _529  and  _530
REMARK  221  A    between atoms: _533  and  _535
REMARK  222  A    between atoms: _535  and  _536
REMARK  223  A    between atoms: _538  and  _540
REMARK  224  A    between atoms: _540  and  _541
REMARK  225  A    between atoms: _540  and  _543
REMARK  226  A    between atoms: _543  and  _544
REMARK  227  A    between atoms: _544  and  _545
REMARK  228  A    between atoms: _545  and  _546
REMARK  229  A    between atoms: _555  and  _557
REMARK  230  A    between atoms: _557  and  _558
REMARK  231  A    between atoms: _557  and  _560
REMARK  232  A    between atoms: _560  and  _561
REMARK                            x       y       z     vdW  Elec       q    Type
REMARK                         _______ _______ _______ _____ _____    ______ ____
ROOT
ATOM      1  O   HOH     1      20.026  29.076  21.252  0.00  0.00    +0.000 OA
ENDROOT
TORSDOF 0
REMARK  Name = ../refined-set-2016/3djk/3djk_pocket.pdb
REMARK  232 active torsions:
REMARK  status: ('A' for Active; 'I' for Inactive)
REMARK    1  A    between atoms: _1  and  _3
REMARK    2  A    between atoms: _3  and  _4
REMARK    3  A    between atoms: _3  and  _6
REMARK    4  A    between atoms: _6  and  _7
REMARK    5  A    between atoms: _7  and  _8
REMARK    6  A    between atoms: _8  and  _9
REMARK    7  A    between atoms: _9  and  _11
REMARK    8  A    between atoms: _11  and  _15
REMARK    9  A    between atoms: _18  and  _20
REMARK   10  A    between atoms: _20  and  _21
REMARK   11  A    between atoms: _20  and  _23
REMARK   12  A    between atoms: _23  and  _24
REMARK   13  A    between atoms: _27  and  _29
REMARK   14  A    between atoms: _29  and  _30
REMARK   15  A    between atoms: _29  and  _32
REMARK   16  A    between atoms: _32  and  _33
REMARK   17  A    between atoms: _36  and  _38
REMARK   18  A    between atoms: _38  and  _39
REMARK   19  A    between atoms: _38  and  _41
REMARK   20  A    between atoms: _41  and  _42
REMARK   21  A    between atoms: _45  and  _47
REMARK   22  A    between atoms: _47  and  _48
REMARK   23  A    between atoms: _47  and  _50
REMARK   24  A    between atoms: _50  and  _51
REMARK   25  A    between atoms: _54  and  _56
REMARK   26  A    between atoms: _56  and  _57
REMARK   27  A    between atoms: _59  and  _61
REMARK   28  A    between atoms: _61  and  _62
REMARK   29  A    between atoms: _65  and  _67
REMARK   30  A    between atoms: _67  and  _68
REMARK   31  A    between atoms: _67  and  _70
REMARK   32  A    between atoms: _70  and  _71
REMARK   33  A    between atoms: _74  and  _76
REMARK   34  A    between atoms: _76  and  _77
REMARK   35  A    between atoms: _76  and  _79
REMARK   36  A    between atoms: _79  and  _80
REMARK   37  A    between atoms: _83  and  _85
REMARK   38  A    between atoms: _85  and  _86
REMARK   39  A    between atoms: _85  and  _88
REMARK   40  A    between atoms: _88  and  _89
REMARK   41  A    between atoms: _92  and  _94
REMARK   42  A    between atoms: _94  and  _95
REMARK   43  A    between atoms: _94  and  _97
REMARK   44  A    between atoms: _100  and  _102
REMARK   45  A    between atoms: _102  and  _103
REMARK   46  A    between atoms: _102  and  _105
REMARK   47  A    between atoms: _105  and  _106
REMARK   48  A    between atoms: _106  and  _107
REMARK   49  A    between atoms: _107  and  _108
REMARK   50  A    between atoms: _108  and  _109
REMARK   51  A    between atoms: _113  and  _115
REMARK   52  A    between atoms: _115  and  _116
REMARK   53  A    between atoms: _115  and  _118
REMARK   54  A    between atoms: _118  and  _119
REMARK   55  A    between atoms: _119  and  _120
REMARK   56  A    between atoms: _122  and  _124
REMARK   57  A    between atoms: _124  and  _125
REMARK   58  A    between atoms: _124  and  _127
REMARK   59  A    between atoms: _127  and  _128
REMARK   60  A    between atoms: _131  and  _133
REMARK   61  A    between atoms: _133  and  _134
REMARK   62  A    between atoms: _136  and  _138
REMARK   63  A    between atoms: _138  and  _139
REMARK   64  A    between atoms: _141  and  _143
REMARK   65  A    between atoms: _143  and  _144
REMARK   66  A    between atoms: _143  and  _146
REMARK   67  A    between atoms: _146  and  _147
REMARK   68  A    between atoms: _150  and  _152
REMARK   69  A    between atoms: _152  and  _153
REMARK   70  A    between atoms: _155  and  _157
REMARK   71  A    between atoms: _157  and  _158
REMARK   72  A    between atoms: _160  and  _162
REMARK   73  A    between atoms: _162  and  _163
REMARK   74  A    between atoms: _162  and  _165
REMARK   75  A    between atoms: _165  and  _166
REMARK   76  A    between atoms: _172  and  _174
REMARK   77  A    between atoms: _174  and  _175
REMARK   78  A    between atoms: _174  and  _177
REMARK   79  A    between atoms: _177  and  _178
REMARK   80  A    between atoms: _181  and  _183
REMARK   81  A    between atoms: _183  and  _184
REMARK   82  A    between atoms: _183  and  _186
REMARK   83  A    between atoms: _189  and  _191
REMARK   84  A    between atoms: _191  and  _192
REMARK   85  A    between atoms: _191  and  _194
REMARK   86  A    between atoms: _194  and  _195
REMARK   87  A    between atoms: _199  and  _200
REMARK   88  A    between atoms: _205  and  _207
REMARK   89  A    between atoms: _207  and  _208
REMARK   90  A    between atoms: _207  and  _210
REMARK   91  A    between atoms: _210  and  _211
REMARK   92  A    between atoms: _215  and  _216
REMARK   93  A    between atoms: _221  and  _223
REMARK   94  A    between atoms: _223  and  _224
REMARK   95  A    between atoms: _223  and  _226
REMARK   96  A    between atoms: _229  and  _231
REMARK   97  A    between atoms: _231  and  _232
REMARK   98  A    between atoms: _231  and  _234
REMARK   99  A    between atoms: _234  and  _235
REMARK  100  A    between atoms: _240  and  _242
REMARK  101  A    between atoms: _242  and  _243
REMARK  102  A    between atoms: _242  and  _245
REMARK  103  A    between atoms: _245  and  _246
REMARK  104  A    between atoms: _249  and  _251
REMARK  105  A    between atoms: _251  and  _252
REMARK  106  A    between atoms: _251  and  _254
REMARK  107  A    between atoms: _254  and  _255
REMARK  108  A    between atoms: _258  and  _260
REMARK  109  A    between atoms: _260  and  _261
REMARK  110  A    between atoms: _263  and  _265
REMARK  111  A    between atoms: _265  and  _266
REMARK  112  A    between atoms: _265  and  _268
REMARK  113  A    between atoms: _268  and  _269
REMARK  114  A    between atoms: _269  and  _270
REMARK  115  A    between atoms: _270  and  _271
REMARK  116  A    between atoms: _280  and  _282
REMARK  117  A    between atoms: _282  and  _283
REMARK  118  A    between atoms: _282  and  _285
REMARK  119  A    between atoms: _285  and  _286
REMARK  120  A    between atoms: _291  and  _293
REMARK  121  A    between atoms: _293  and  _294
REMARK  122  A    between atoms: _293  and  _296
REMARK  123  A    between atoms: _296  and  _297
REMARK  124  A    between atoms: _297  and  _298
REMARK  125  A    between atoms: _298  and  _299
REMARK  126  A    between atoms: _308  and  _310
REMARK  127  A    between atoms: _310  and  _311
REMARK  128  A    between atoms: _310  and  _313
REMARK  129  A    between atoms: _313  and  _314
REMARK  130  A    between atoms: _317  and  _319
REMARK  131  A    between atoms: _319  and  _320
REMARK  132  A    between atoms: _319  and  _322
REMARK  133  A    between atoms: _322  and  _323
REMARK  134  A    between atoms: _326  and  _328
REMARK  135  A    between atoms: _328  and  _329
REMARK  136  A    between atoms: _328  and  _331
REMARK  137  A    between atoms: _331  and  _332
REMARK  138  A    between atoms: _335  and  _337
REMARK  139  A    between atoms: _337  and  _338
REMARK  140  A    between atoms: _337  and  _340
REMARK  141  A    between atoms: _340  and  _341
REMARK  142  A    between atoms: _344  and  _346
REMARK  143  A    between atoms: _346  and  _347
REMARK  144  A    between atoms: _349  and  _351
REMARK  145  A    between atoms: _351  and  _352
REMARK  146  A    between atoms: _355  and  _357
REMARK  147  A    between atoms: _357  and  _358
REMARK  148  A    between atoms: _357  and  _360
REMARK  149  A    between atoms: _360  and  _361
REMARK  150  A    between atoms: _364  and  _366
REMARK  151  A    between atoms: _366  and  _367
REMARK  152  A    between atoms: _366  and  _369
REMARK  153  A    between atoms: _369  and  _370
REMARK  154  A    between atoms: _373  and  _375
REMARK  155  A    between atoms: _375  and  _376
REMARK  156  A    between atoms: _375  and  _378
REMARK  157  A    between atoms: _378  and  _379
REMARK  158  A    between atoms: _382  and  _384
REMARK  159  A    between atoms: _384  and  _385
REMARK  160  A    between atoms: _384  and  _387
REMARK  161  A    between atoms: _390  and  _392
REMARK  162  A    between atoms: _392  and  _393
REMARK  163  A    between atoms: _392  and  _395
REMARK  164  A    between atoms: _395  and  _396
REMARK  165  A    between atoms: _396  and  _397
REMARK  166  A    between atoms: _397  and  _398
REMARK  167  A    between atoms: _398  and  _399
REMARK  168  A    between atoms: _403  and  _405
REMARK  169  A    between atoms: _405  and  _406
REMARK  170  A    between atoms: _405  and  _408
REMARK  171  A    between atoms: _408  and  _409
REMARK  172  A    between atoms: _409  and  _410
REMARK  173  A    between atoms: _412  and  _414
REMARK  174  A    between atoms: _414  and  _415
REMARK  175  A    between atoms: _414  and  _417
REMARK  176  A    between atoms: _417  and  _418
REMARK  177  A    between atoms: _421  and  _423
REMARK  178  A    between atoms: _423  and  _424
REMARK  179  A    between atoms: _426  and  _428
REMARK  180  A    between atoms: _428  and  _429
REMARK  181  A    between atoms: _431  and  _433
REMARK  182  A    between atoms: _433  and  _434
REMARK  183  A    between atoms: _433  and  _436
REMARK  184  A    between atoms: _436  and  _437
REMARK  185  A    between atoms: _440  and  _442
REMARK  186  A    between atoms: _442  and  _443
REMARK  187  A    between atoms: _445  and  _447
REMARK  188  A    between atoms: _447  and  _448
REMARK  189  A    between atoms: _450  and  _452
REMARK  190  A    between atoms: _452  and  _453
REMARK  191  A    between atoms: _452  and  _455
REMARK  192  A    between atoms: _455  and  _456
REMARK  193  A    between atoms: _462  and  _464
REMARK  194  A    between atoms: _464  and  _465
REMARK  195  A    between atoms: _464  and  _467
REMARK  196  A    between atoms: _467  and  _468
REMARK  197  A    between atoms: _471  and  _473
REMARK  198  A    between atoms: _473  and  _474
REMARK  199  A    between atoms: _473  and  _476
REMARK  200  A    between atoms: _476  and  _477
REMARK  201  A    between atoms: _480  and  _482
REMARK  202  A    between atoms: _482  and  _483
REMARK  203  A    between atoms: _482  and  _485
REMARK  204  A    between atoms: _485  and  _486
REMARK  205  A    between atoms: _490  and  _491
REMARK  206  A    between atoms: _496  and  _498
REMARK  207  A    between atoms: _498  and  _499
REMARK  208  A    between atoms: _498  and  _501
REMARK  209  A    between atoms: _504  and  _506
REMARK  210  A    between atoms: _506  and  _507
REMARK  211  A    between atoms: _506  and  _509
REMARK  212  A    between atoms: _509  and  _510
REMARK  213  A    between atoms: _515  and  _517
REMARK  214  A    between atoms: _517  and  _518
REMARK  215  A    between atoms: _517  and  _520
REMARK  216  A    between atoms: _520  and  _521
REMARK  217  A    between atoms: _524  and  _526
REMARK  218  A    between atoms: _526  and  _527
REMARK  219  A    between atoms: _526  and  _529
REMARK  220  A    between atoms: _529  and  _530
REMARK  221  A    between atoms: _533  and  _535
REMARK  222  A    between atoms: _535  and  _536
REMARK  223  A    between atoms: _538  and  _540
REMARK  224  A    between atoms: _540  and  _541
REMARK  225  A    between atoms: _540  and  _543
REMARK  226  A    between atoms: _543  and  _544
REMARK  227  A    between atoms: _544  and  _545
REMARK  228  A    between atoms: _545  and  _546
REMARK  229  A    between atoms: _555  and  _557
REMARK  230  A    between atoms: _557  and  _558
REMARK  231  A    between atoms: _557  and  _560
REMARK  232  A    between atoms: _560  and  _561
REMARK                            x       y       z     vdW  Elec       q    Type
REMARK                         _______ _______ _______ _____ _____    ______ ____
ROOT
ATOM      1  O   HOH     1      10.048  20.423  17.565  0.00  0.00    +0.000 OA
ENDROOT
TORSDOF 0
REMARK  Name = ../refined-set-2016/3djk/3djk_pocket.pdb
REMARK  232 active torsions:
REMARK  status: ('A' for Active; 'I' for Inactive)
REMARK    1  A    between atoms: _1  and  _3
REMARK    2  A    between atoms: _3  and  _4
REMARK    3  A    between atoms: _3  and  _6
REMARK    4  A    between atoms: _6  and  _7
REMARK    5  A    between atoms: _7  and  _8
REMARK    6  A    between atoms: _8  and  _9
REMARK    7  A    between atoms: _9  and  _11
REMARK    8  A    between atoms: _11  and  _15
REMARK    9  A    between atoms: _18  and  _20
REMARK   10  A    between atoms: _20  and  _21
REMARK   11  A    between atoms: _20  and  _23
REMARK   12  A    between atoms: _23  and  _24
REMARK   13  A    between atoms: _27  and  _29
REMARK   14  A    between atoms: _29  and  _30
REMARK   15  A    between atoms: _29  and  _32
REMARK   16  A    between atoms: _32  and  _33
REMARK   17  A    between atoms: _36  and  _38
REMARK   18  A    between atoms: _38  and  _39
REMARK   19  A    between atoms: _38  and  _41
REMARK   20  A    between atoms: _41  and  _42
REMARK   21  A    between atoms: _45  and  _47
REMARK   22  A    between atoms: _47  and  _48
REMARK   23  A    between atoms: _47  and  _50
REMARK   24  A    between atoms: _50  and  _51
REMARK   25  A    between atoms: _54  and  _56
REMARK   26  A    between atoms: _56  and  _57
REMARK   27  A    between atoms: _59  and  _61
REMARK   28  A    between atoms: _61  and  _62
REMARK   29  A    between atoms: _65  and  _67
REMARK   30  A    between atoms: _67  and  _68
REMARK   31  A    between atoms: _67  and  _70
REMARK   32  A    between atoms: _70  and  _71
REMARK   33  A    between atoms: _74  and  _76
REMARK   34  A    between atoms: _76  and  _77
REMARK   35  A    between atoms: _76  and  _79
REMARK   36  A    between atoms: _79  and  _80
REMARK   37  A    between atoms: _83  and  _85
REMARK   38  A    between atoms: _85  and  _86
REMARK   39  A    between atoms: _85  and  _88
REMARK   40  A    between atoms: _88  and  _89
REMARK   41  A    between atoms: _92  and  _94
REMARK   42  A    between atoms: _94  and  _95
REMARK   43  A    between atoms: _94  and  _97
REMARK   44  A    between atoms: _100  and  _102
REMARK   45  A    between atoms: _102  and  _103
REMARK   46  A    between atoms: _102  and  _105
REMARK   47  A    between atoms: _105  and  _106
REMARK   48  A    between atoms: _106  and  _107
REMARK   49  A    between atoms: _107  and  _108
REMARK   50  A    between atoms: _108  and  _109
REMARK   51  A    between atoms: _113  and  _115
REMARK   52  A    between atoms: _115  and  _116
REMARK   53  A    between atoms: _115  and  _118
REMARK   54  A    between atoms: _118  and  _119
REMARK   55  A    between atoms: _119  and  _120
REMARK   56  A    between atoms: _122  and  _124
REMARK   57  A    between atoms: _124  and  _125
REMARK   58  A    between atoms: _124  and  _127
REMARK   59  A    between atoms: _127  and  _128
REMARK   60  A    between atoms: _131  and  _133
REMARK   61  A    between atoms: _133  and  _134
REMARK   62  A    between atoms: _136  and  _138
REMARK   63  A    between atoms: _138  and  _139
REMARK   64  A    between atoms: _141  and  _143
REMARK   65  A    between atoms: _143  and  _144
REMARK   66  A    between atoms: _143  and  _146
REMARK   67  A    between atoms: _146  and  _147
REMARK   68  A    between atoms: _150  and  _152
REMARK   69  A    between atoms: _152  and  _153
REMARK   70  A    between atoms: _155  and  _157
REMARK   71  A    between atoms: _157  and  _158
REMARK   72  A    between atoms: _160  and  _162
REMARK   73  A    between atoms: _162  and  _163
REMARK   74  A    between atoms: _162  and  _165
REMARK   75  A    between atoms: _165  and  _166
REMARK   76  A    between atoms: _172  and  _174
REMARK   77  A    between atoms: _174  and  _175
REMARK   78  A    between atoms: _174  and  _177
REMARK   79  A    between atoms: _177  and  _178
REMARK   80  A    between atoms: _181  and  _183
REMARK   81  A    between atoms: _183  and  _184
REMARK   82  A    between atoms: _183  and  _186
REMARK   83  A    between atoms: _189  and  _191
REMARK   84  A    between atoms: _191  and  _192
REMARK   85  A    between atoms: _191  and  _194
REMARK   86  A    between atoms: _194  and  _195
REMARK   87  A    between atoms: _199  and  _200
REMARK   88  A    between atoms: _205  and  _207
REMARK   89  A    between atoms: _207  and  _208
REMARK   90  A    between atoms: _207  and  _210
REMARK   91  A    between atoms: _210  and  _211
REMARK   92  A    between atoms: _215  and  _216
REMARK   93  A    between atoms: _221  and  _223
REMARK   94  A    between atoms: _223  and  _224
REMARK   95  A    between atoms: _223  and  _226
REMARK   96  A    between atoms: _229  and  _231
REMARK   97  A    between atoms: _231  and  _232
REMARK   98  A    between atoms: _231  and  _234
REMARK   99  A    between atoms: _234  and  _235
REMARK  100  A    between atoms: _240  and  _242
REMARK  101  A    between atoms: _242  and  _243
REMARK  102  A    between atoms: _242  and  _245
REMARK  103  A    between atoms: _245  and  _246
REMARK  104  A    between atoms: _249  and  _251
REMARK  105  A    between atoms: _251  and  _252
REMARK  106  A    between atoms: _251  and  _254
REMARK  107  A    between atoms: _254  and  _255
REMARK  108  A    between atoms: _258  and  _260
REMARK  109  A    between atoms: _260  and  _261
REMARK  110  A    between atoms: _263  and  _265
REMARK  111  A    between atoms: _265  and  _266
REMARK  112  A    between atoms: _265  and  _268
REMARK  113  A    between atoms: _268  and  _269
REMARK  114  A    between atoms: _269  and  _270
REMARK  115  A    between atoms: _270  and  _271
REMARK  116  A    between atoms: _280  and  _282
REMARK  117  A    between atoms: _282  and  _283
REMARK  118  A    between atoms: _282  and  _285
REMARK  119  A    between atoms: _285  and  _286
REMARK  120  A    between atoms: _291  and  _293
REMARK  121  A    between atoms: _293  and  _294
REMARK  122  A    between atoms: _293  and  _296
REMARK  123  A    between atoms: _296  and  _297
REMARK  124  A    between atoms: _297  and  _298
REMARK  125  A    between atoms: _298  and  _299
REMARK  126  A    between atoms: _308  and  _310
REMARK  127  A    between atoms: _310  and  _311
REMARK  128  A    between atoms: _310  and  _313
REMARK  129  A    between atoms: _313  and  _314
REMARK  130  A    between atoms: _317  and  _319
REMARK  131  A    between atoms: _319  and  _320
REMARK  132  A    between atoms: _319  and  _322
REMARK  133  A    between atoms: _322  and  _323
REMARK  134  A    between atoms: _326  and  _328
REMARK  135  A    between atoms: _328  and  _329
REMARK  136  A    between atoms: _328  and  _331
REMARK  137  A    between atoms: _331  and  _332
REMARK  138  A    between atoms: _335  and  _337
REMARK  139  A    between atoms: _337  and  _338
REMARK  140  A    between atoms: _337  and  _340
REMARK  141  A    between atoms: _340  and  _341
REMARK  142  A    between atoms: _344  and  _346
REMARK  143  A    between atoms: _346  and  _347
REMARK  144  A    between atoms: _349  and  _351
REMARK  145  A    between atoms: _351  and  _352
REMARK  146  A    between atoms: _355  and  _357
REMARK  147  A    between atoms: _357  and  _358
REMARK  148  A    between atoms: _357  and  _360
REMARK  149  A    between atoms: _360  and  _361
REMARK  150  A    between atoms: _364  and  _366
REMARK  151  A    between atoms: _366  and  _367
REMARK  152  A    between atoms: _366  and  _369
REMARK  153  A    between atoms: _369  and  _370
REMARK  154  A    between atoms: _373  and  _375
REMARK  155  A    between atoms: _375  and  _376
REMARK  156  A    between atoms: _375  and  _378
REMARK  157  A    between atoms: _378  and  _379
REMARK  158  A    between atoms: _382  and  _384
REMARK  159  A    between atoms: _384  and  _385
REMARK  160  A    between atoms: _384  and  _387
REMARK  161  A    between atoms: _390  and  _392
REMARK  162  A    between atoms: _392  and  _393
REMARK  163  A    between atoms: _392  and  _395
REMARK  164  A    between atoms: _395  and  _396
REMARK  165  A    between atoms: _396  and  _397
REMARK  166  A    between atoms: _397  and  _398
REMARK  167  A    between atoms: _398  and  _399
REMARK  168  A    between atoms: _403  and  _405
REMARK  169  A    between atoms: _405  and  _406
REMARK  170  A    between atoms: _405  and  _408
REMARK  171  A    between atoms: _408  and  _409
REMARK  172  A    between atoms: _409  and  _410
REMARK  173  A    between atoms: _412  and  _414
REMARK  174  A    between atoms: _414  and  _415
REMARK  175  A    between atoms: _414  and  _417
REMARK  176  A    between atoms: _417  and  _418
REMARK  177  A    between atoms: _421  and  _423
REMARK  178  A    between atoms: _423  and  _424
REMARK  179  A    between atoms: _426  and  _428
REMARK  180  A    between atoms: _428  and  _429
REMARK  181  A    between atoms: _431  and  _433
REMARK  182  A    between atoms: _433  and  _434
REMARK  183  A    between atoms: _433  and  _436
REMARK  184  A    between atoms: _436  and  _437
REMARK  185  A    between atoms: _440  and  _442
REMARK  186  A    between atoms: _442  and  _443
REMARK  187  A    between atoms: _445  and  _447
REMARK  188  A    between atoms: _447  and  _448
REMARK  189  A    between atoms: _450  and  _452
REMARK  190  A    between atoms: _452  and  _453
REMARK  191  A    between atoms: _452  and  _455
REMARK  192  A    between atoms: _455  and  _456
REMARK  193  A    between atoms: _462  and  _464
REMARK  194  A    between atoms: _464  and  _465
REMARK  195  A    between atoms: _464  and  _467
REMARK  196  A    between atoms: _467  and  _468
REMARK  197  A    between atoms: _471  and  _473
REMARK  198  A    between atoms: _473  and  _474
REMARK  199  A    between atoms: _473  and  _476
REMARK  200  A    between atoms: _476  and  _477
REMARK  201  A    between atoms: _480  and  _482
REMARK  202  A    between atoms: _482  and  _483
REMARK  203  A    between atoms: _482  and  _485
REMARK  204  A    between atoms: _485  and  _486
REMARK  205  A    between atoms: _490  and  _491
REMARK  206  A    between atoms: _496  and  _498
REMARK  207  A    between atoms: _498  and  _499
REMARK  208  A    between atoms: _498  and  _501
REMARK  209  A    between atoms: _504  and  _506
REMARK  210  A    between atoms: _506  and  _507
REMARK  211  A    between atoms: _506  and  _509
REMARK  212  A    between atoms: _509  and  _510
REMARK  213  A    between atoms: _515  and  _517
REMARK  214  A    between atoms: _517  and  _518
REMARK  215  A    between atoms: _517  and  _520
REMARK  216  A    between atoms: _520  and  _521
REMARK  217  A    between atoms: _524  and  _526
REMARK  218  A    between atoms: _526  and  _527
REMARK  219  A    between atoms: _526  and  _529
REMARK  220  A    between atoms: _529  and  _530
REMARK  221  A    between atoms: _533  and  _535
REMARK  222  A    between atoms: _535  and  _536
REMARK  223  A    between atoms: _538  and  _540
REMARK  224  A    between atoms: _540  and  _541
REMARK  225  A    between atoms: _540  and  _543
REMARK  226  A    between atoms: _543  and  _544
REMARK  227  A    between atoms: _544  and  _545
REMARK  228  A    between atoms: _545  and  _546
REMARK  229  A    between atoms: _555  and  _557
REMARK  230  A    between atoms: _557  and  _558
REMARK  231  A    between atoms: _557  and  _560
REMARK  232  A    between atoms: _560  and  _561
REMARK                            x       y       z     vdW  Elec       q    Type
REMARK                         _______ _______ _______ _____ _____    ______ ____
ROOT
ATOM      1  O   HOH     1       7.189  15.440  25.310  0.00  0.00    +0.000 OA
ENDROOT
TORSDOF 0
REMARK  Name = ../refined-set-2016/3djk/3djk_pocket.pdb
REMARK  232 active torsions:
REMARK  status: ('A' for Active; 'I' for Inactive)
REMARK    1  A    between atoms: _1  and  _3
REMARK    2  A    between atoms: _3  and  _4
REMARK    3  A    between atoms: _3  and  _6
REMARK    4  A    between atoms: _6  and  _7
REMARK    5  A    between atoms: _7  and  _8
REMARK    6  A    between atoms: _8  and  _9
REMARK    7  A    between atoms: _9  and  _11
REMARK    8  A    between atoms: _11  and  _15
REMARK    9  A    between atoms: _18  and  _20
REMARK   10  A    between atoms: _20  and  _21
REMARK   11  A    between atoms: _20  and  _23
REMARK   12  A    between atoms: _23  and  _24
REMARK   13  A    between atoms: _27  and  _29
REMARK   14  A    between atoms: _29  and  _30
REMARK   15  A    between atoms: _29  and  _32
REMARK   16  A    between atoms: _32  and  _33
REMARK   17  A    between atoms: _36  and  _38
REMARK   18  A    between atoms: _38  and  _39
REMARK   19  A    between atoms: _38  and  _41
REMARK   20  A    between atoms: _41  and  _42
REMARK   21  A    between atoms: _45  and  _47
REMARK   22  A    between atoms: _47  and  _48
REMARK   23  A    between atoms: _47  and  _50
REMARK   24  A    between atoms: _50  and  _51
REMARK   25  A    between atoms: _54  and  _56
REMARK   26  A    between atoms: _56  and  _57
REMARK   27  A    between atoms: _59  and  _61
REMARK   28  A    between atoms: _61  and  _62
REMARK   29  A    between atoms: _65  and  _67
REMARK   30  A    between atoms: _67  and  _68
REMARK   31  A    between atoms: _67  and  _70
REMARK   32  A    between atoms: _70  and  _71
REMARK   33  A    between atoms: _74  and  _76
REMARK   34  A    between atoms: _76  and  _77
REMARK   35  A    between atoms: _76  and  _79
REMARK   36  A    between atoms: _79  and  _80
REMARK   37  A    between atoms: _83  and  _85
REMARK   38  A    between atoms: _85  and  _86
REMARK   39  A    between atoms: _85  and  _88
REMARK   40  A    between atoms: _88  and  _89
REMARK   41  A    between atoms: _92  and  _94
REMARK   42  A    between atoms: _94  and  _95
REMARK   43  A    between atoms: _94  and  _97
REMARK   44  A    between atoms: _100  and  _102
REMARK   45  A    between atoms: _102  and  _103
REMARK   46  A    between atoms: _102  and  _105
REMARK   47  A    between atoms: _105  and  _106
REMARK   48  A    between atoms: _106  and  _107
REMARK   49  A    between atoms: _107  and  _108
REMARK   50  A    between atoms: _108  and  _109
REMARK   51  A    between atoms: _113  and  _115
REMARK   52  A    between atoms: _115  and  _116
REMARK   53  A    between atoms: _115  and  _118
REMARK   54  A    between atoms: _118  and  _119
REMARK   55  A    between atoms: _119  and  _120
REMARK   56  A    between atoms: _122  and  _124
REMARK   57  A    between atoms: _124  and  _125
REMARK   58  A    between atoms: _124  and  _127
REMARK   59  A    between atoms: _127  and  _128
REMARK   60  A    between atoms: _131  and  _133
REMARK   61  A    between atoms: _133  and  _134
REMARK   62  A    between atoms: _136  and  _138
REMARK   63  A    between atoms: _138  and  _139
REMARK   64  A    between atoms: _141  and  _143
REMARK   65  A    between atoms: _143  and  _144
REMARK   66  A    between atoms: _143  and  _146
REMARK   67  A    between atoms: _146  and  _147
REMARK   68  A    between atoms: _150  and  _152
REMARK   69  A    between atoms: _152  and  _153
REMARK   70  A    between atoms: _155  and  _157
REMARK   71  A    between atoms: _157  and  _158
REMARK   72  A    between atoms: _160  and  _162
REMARK   73  A    between atoms: _162  and  _163
REMARK   74  A    between atoms: _162  and  _165
REMARK   75  A    between atoms: _165  and  _166
REMARK   76  A    between atoms: _172  and  _174
REMARK   77  A    between atoms: _174  and  _175
REMARK   78  A    between atoms: _174  and  _177
REMARK   79  A    between atoms: _177  and  _178
REMARK   80  A    between atoms: _181  and  _183
REMARK   81  A    between atoms: _183  and  _184
REMARK   82  A    between atoms: _183  and  _186
REMARK   83  A    between atoms: _189  and  _191
REMARK   84  A    between atoms: _191  and  _192
REMARK   85  A    between atoms: _191  and  _194
REMARK   86  A    between atoms: _194  and  _195
REMARK   87  A    between atoms: _199  and  _200
REMARK   88  A    between atoms: _205  and  _207
REMARK   89  A    between atoms: _207  and  _208
REMARK   90  A    between atoms: _207  and  _210
REMARK   91  A    between atoms: _210  and  _211
REMARK   92  A    between atoms: _215  and  _216
REMARK   93  A    between atoms: _221  and  _223
REMARK   94  A    between atoms: _223  and  _224
REMARK   95  A    between atoms: _223  and  _226
REMARK   96  A    between atoms: _229  and  _231
REMARK   97  A    between atoms: _231  and  _232
REMARK   98  A    between atoms: _231  and  _234
REMARK   99  A    between atoms: _234  and  _235
REMARK  100  A    between atoms: _240  and  _242
REMARK  101  A    between atoms: _242  and  _243
REMARK  102  A    between atoms: _242  and  _245
REMARK  103  A    between atoms: _245  and  _246
REMARK  104  A    between atoms: _249  and  _251
REMARK  105  A    between atoms: _251  and  _252
REMARK  106  A    between atoms: _251  and  _254
REMARK  107  A    between atoms: _254  and  _255
REMARK  108  A    between atoms: _258  and  _260
REMARK  109  A    between atoms: _260  and  _261
REMARK  110  A    between atoms: _263  and  _265
REMARK  111  A    between atoms: _265  and  _266
REMARK  112  A    between atoms: _265  and  _268
REMARK  113  A    between atoms: _268  and  _269
REMARK  114  A    between atoms: _269  and  _270
REMARK  115  A    between atoms: _270  and  _271
REMARK  116  A    between atoms: _280  and  _282
REMARK  117  A    between atoms: _282  and  _283
REMARK  118  A    between atoms: _282  and  _285
REMARK  119  A    between atoms: _285  and  _286
REMARK  120  A    between atoms: _291  and  _293
REMARK  121  A    between atoms: _293  and  _294
REMARK  122  A    between atoms: _293  and  _296
REMARK  123  A    between atoms: _296  and  _297
REMARK  124  A    between atoms: _297  and  _298
REMARK  125  A    between atoms: _298  and  _299
REMARK  126  A    between atoms: _308  and  _310
REMARK  127  A    between atoms: _310  and  _311
REMARK  128  A    between atoms: _310  and  _313
REMARK  129  A    between atoms: _313  and  _314
REMARK  130  A    between atoms: _317  and  _319
REMARK  131  A    between atoms: _319  and  _320
REMARK  132  A    between atoms: _319  and  _322
REMARK  133  A    between atoms: _322  and  _323
REMARK  134  A    between atoms: _326  and  _328
REMARK  135  A    between atoms: _328  and  _329
REMARK  136  A    between atoms: _328  and  _331
REMARK  137  A    between atoms: _331  and  _332
REMARK  138  A    between atoms: _335  and  _337
REMARK  139  A    between atoms: _337  and  _338
REMARK  140  A    between atoms: _337  and  _340
REMARK  141  A    between atoms: _340  and  _341
REMARK  142  A    between atoms: _344  and  _346
REMARK  143  A    between atoms: _346  and  _347
REMARK  144  A    between atoms: _349  and  _351
REMARK  145  A    between atoms: _351  and  _352
REMARK  146  A    between atoms: _355  and  _357
REMARK  147  A    between atoms: _357  and  _358
REMARK  148  A    between atoms: _357  and  _360
REMARK  149  A    between atoms: _360  and  _361
REMARK  150  A    between atoms: _364  and  _366
REMARK  151  A    between atoms: _366  and  _367
REMARK  152  A    between atoms: _366  and  _369
REMARK  153  A    between atoms: _369  and  _370
REMARK  154  A    between atoms: _373  and  _375
REMARK  155  A    between atoms: _375  and  _376
REMARK  156  A    between atoms: _375  and  _378
REMARK  157  A    between atoms: _378  and  _379
REMARK  158  A    between atoms: _382  and  _384
REMARK  159  A    between atoms: _384  and  _385
REMARK  160  A    between atoms: _384  and  _387
REMARK  161  A    between atoms: _390  and  _392
REMARK  162  A    between atoms: _392  and  _393
REMARK  163  A    between atoms: _392  and  _395
REMARK  164  A    between atoms: _395  and  _396
REMARK  165  A    between atoms: _396  and  _397
REMARK  166  A    between atoms: _397  and  _398
REMARK  167  A    between atoms: _398  and  _399
REMARK  168  A    between atoms: _403  and  _405
REMARK  169  A    between atoms: _405  and  _406
REMARK  170  A    between atoms: _405  and  _408
REMARK  171  A    between atoms: _408  and  _409
REMARK  172  A    between atoms: _409  and  _410
REMARK  173  A    between atoms: _412  and  _414
REMARK  174  A    between atoms: _414  and  _415
REMARK  175  A    between atoms: _414  and  _417
REMARK  176  A    between atoms: _417  and  _418
REMARK  177  A    between atoms: _421  and  _423
REMARK  178  A    between atoms: _423  and  _424
REMARK  179  A    between atoms: _426  and  _428
REMARK  180  A    between atoms: _428  and  _429
REMARK  181  A    between atoms: _431  and  _433
REMARK  182  A    between atoms: _433  and  _434
REMARK  183  A    between atoms: _433  and  _436
REMARK  184  A    between atoms: _436  and  _437
REMARK  185  A    between atoms: _440  and  _442
REMARK  186  A    between atoms: _442  and  _443
REMARK  187  A    between atoms: _445  and  _447
REMARK  188  A    between atoms: _447  and  _448
REMARK  189  A    between atoms: _450  and  _452
REMARK  190  A    between atoms: _452  and  _453
REMARK  191  A    between atoms: _452  and  _455
REMARK  192  A    between atoms: _455  and  _456
REMARK  193  A    between atoms: _462  and  _464
REMARK  194  A    between atoms: _464  and  _465
REMARK  195  A    between atoms: _464  and  _467
REMARK  196  A    between atoms: _467  and  _468
REMARK  197  A    between atoms: _471  and  _473
REMARK  198  A    between atoms: _473  and  _474
REMARK  199  A    between atoms: _473  and  _476
REMARK  200  A    between atoms: _476  and  _477
REMARK  201  A    between atoms: _480  and  _482
REMARK  202  A    between atoms: _482  and  _483
REMARK  203  A    between atoms: _482  and  _485
REMARK  204  A    between atoms: _485  and  _486
REMARK  205  A    between atoms: _490  and  _491
REMARK  206  A    between atoms: _496  and  _498
REMARK  207  A    between atoms: _498  and  _499
REMARK  208  A    between atoms: _498  and  _501
REMARK  209  A    between atoms: _504  and  _506
REMARK  210  A    between atoms: _506  and  _507
REMARK  211  A    between atoms: _506  and  _509
REMARK  212  A    between atoms: _509  and  _510
REMARK  213  A    between atoms: _515  and  _517
REMARK  214  A    between atoms: _517  and  _518
REMARK  215  A    between atoms: _517  and  _520
REMARK  216  A    between atoms: _520  and  _521
REMARK  217  A    between atoms: _524  and  _526
REMARK  218  A    between atoms: _526  and  _527
REMARK  219  A    between atoms: _526  and  _529
REMARK  220  A    between atoms: _529  and  _530
REMARK  221  A    between atoms: _533  and  _535
REMARK  222  A    between atoms: _535  and  _536
REMARK  223  A    between atoms: _538  and  _540
REMARK  224  A    between atoms: _540  and  _541
REMARK  225  A    between atoms: _540  and  _543
REMARK  226  A    between atoms: _543  and  _544
REMARK  227  A    between atoms: _544  and  _545
REMARK  228  A    between atoms: _545  and  _546
REMARK  229  A    between atoms: _555  and  _557
REMARK  230  A    between atoms: _557  and  _558
REMARK  231  A    between atoms: _557  and  _560
REMARK  232  A    between atoms: _560  and  _561
REMARK                            x       y       z     vdW  Elec       q    Type
REMARK                         _______ _______ _______ _____ _____    ______ ____
ROOT
ATOM      1  O   HOH     1      12.910  16.269  11.415  0.00  0.00    +0.000 OA
ENDROOT
TORSDOF 0
REMARK  Name = ../refined-set-2016/3djk/3djk_pocket.pdb
REMARK  232 active torsions:
REMARK  status: ('A' for Active; 'I' for Inactive)
REMARK    1  A    between atoms: _1  and  _3
REMARK    2  A    between atoms: _3  and  _4
REMARK    3  A    between atoms: _3  and  _6
REMARK    4  A    between atoms: _6  and  _7
REMARK    5  A    between atoms: _7  and  _8
REMARK    6  A    between atoms: _8  and  _9
REMARK    7  A    between atoms: _9  and  _11
REMARK    8  A    between atoms: _11  and  _15
REMARK    9  A    between atoms: _18  and  _20
REMARK   10  A    between atoms: _20  and  _21
REMARK   11  A    between atoms: _20  and  _23
REMARK   12  A    between atoms: _23  and  _24
REMARK   13  A    between atoms: _27  and  _29
REMARK   14  A    between atoms: _29  and  _30
REMARK   15  A    between atoms: _29  and  _32
REMARK   16  A    between atoms: _32  and  _33
REMARK   17  A    between atoms: _36  and  _38
REMARK   18  A    between atoms: _38  and  _39
REMARK   19  A    between atoms: _38  and  _41
REMARK   20  A    between atoms: _41  and  _42
REMARK   21  A    between atoms: _45  and  _47
REMARK   22  A    between atoms: _47  and  _48
REMARK   23  A    between atoms: _47  and  _50
REMARK   24  A    between atoms: _50  and  _51
REMARK   25  A    between atoms: _54  and  _56
REMARK   26  A    between atoms: _56  and  _57
REMARK   27  A    between atoms: _59  and  _61
REMARK   28  A    between atoms: _61  and  _62
REMARK   29  A    between atoms: _65  and  _67
REMARK   30  A    between atoms: _67  and  _68
REMARK   31  A    between atoms: _67  and  _70
REMARK   32  A    between atoms: _70  and  _71
REMARK   33  A    between atoms: _74  and  _76
REMARK   34  A    between atoms: _76  and  _77
REMARK   35  A    between atoms: _76  and  _79
REMARK   36  A    between atoms: _79  and  _80
REMARK   37  A    between atoms: _83  and  _85
REMARK   38  A    between atoms: _85  and  _86
REMARK   39  A    between atoms: _85  and  _88
REMARK   40  A    between atoms: _88  and  _89
REMARK   41  A    between atoms: _92  and  _94
REMARK   42  A    between atoms: _94  and  _95
REMARK   43  A    between atoms: _94  and  _97
REMARK   44  A    between atoms: _100  and  _102
REMARK   45  A    between atoms: _102  and  _103
REMARK   46  A    between atoms: _102  and  _105
REMARK   47  A    between atoms: _105  and  _106
REMARK   48  A    between atoms: _106  and  _107
REMARK   49  A    between atoms: _107  and  _108
REMARK   50  A    between atoms: _108  and  _109
REMARK   51  A    between atoms: _113  and  _115
REMARK   52  A    between atoms: _115  and  _116
REMARK   53  A    between atoms: _115  and  _118
REMARK   54  A    between atoms: _118  and  _119
REMARK   55  A    between atoms: _119  and  _120
REMARK   56  A    between atoms: _122  and  _124
REMARK   57  A    between atoms: _124  and  _125
REMARK   58  A    between atoms: _124  and  _127
REMARK   59  A    between atoms: _127  and  _128
REMARK   60  A    between atoms: _131  and  _133
REMARK   61  A    between atoms: _133  and  _134
REMARK   62  A    between atoms: _136  and  _138
REMARK   63  A    between atoms: _138  and  _139
REMARK   64  A    between atoms: _141  and  _143
REMARK   65  A    between atoms: _143  and  _144
REMARK   66  A    between atoms: _143  and  _146
REMARK   67  A    between atoms: _146  and  _147
REMARK   68  A    between atoms: _150  and  _152
REMARK   69  A    between atoms: _152  and  _153
REMARK   70  A    between atoms: _155  and  _157
REMARK   71  A    between atoms: _157  and  _158
REMARK   72  A    between atoms: _160  and  _162
REMARK   73  A    between atoms: _162  and  _163
REMARK   74  A    between atoms: _162  and  _165
REMARK   75  A    between atoms: _165  and  _166
REMARK   76  A    between atoms: _172  and  _174
REMARK   77  A    between atoms: _174  and  _175
REMARK   78  A    between atoms: _174  and  _177
REMARK   79  A    between atoms: _177  and  _178
REMARK   80  A    between atoms: _181  and  _183
REMARK   81  A    between atoms: _183  and  _184
REMARK   82  A    between atoms: _183  and  _186
REMARK   83  A    between atoms: _189  and  _191
REMARK   84  A    between atoms: _191  and  _192
REMARK   85  A    between atoms: _191  and  _194
REMARK   86  A    between atoms: _194  and  _195
REMARK   87  A    between atoms: _199  and  _200
REMARK   88  A    between atoms: _205  and  _207
REMARK   89  A    between atoms: _207  and  _208
REMARK   90  A    between atoms: _207  and  _210
REMARK   91  A    between atoms: _210  and  _211
REMARK   92  A    between atoms: _215  and  _216
REMARK   93  A    between atoms: _221  and  _223
REMARK   94  A    between atoms: _223  and  _224
REMARK   95  A    between atoms: _223  and  _226
REMARK   96  A    between atoms: _229  and  _231
REMARK   97  A    between atoms: _231  and  _232
REMARK   98  A    between atoms: _231  and  _234
REMARK   99  A    between atoms: _234  and  _235
REMARK  100  A    between atoms: _240  and  _242
REMARK  101  A    between atoms: _242  and  _243
REMARK  102  A    between atoms: _242  and  _245
REMARK  103  A    between atoms: _245  and  _246
REMARK  104  A    between atoms: _249  and  _251
REMARK  105  A    between atoms: _251  and  _252
REMARK  106  A    between atoms: _251  and  _254
REMARK  107  A    between atoms: _254  and  _255
REMARK  108  A    between atoms: _258  and  _260
REMARK  109  A    between atoms: _260  and  _261
REMARK  110  A    between atoms: _263  and  _265
REMARK  111  A    between atoms: _265  and  _266
REMARK  112  A    between atoms: _265  and  _268
REMARK  113  A    between atoms: _268  and  _269
REMARK  114  A    between atoms: _269  and  _270
REMARK  115  A    between atoms: _270  and  _271
REMARK  116  A    between atoms: _280  and  _282
REMARK  117  A    between atoms: _282  and  _283
REMARK  118  A    between atoms: _282  and  _285
REMARK  119  A    between atoms: _285  and  _286
REMARK  120  A    between atoms: _291  and  _293
REMARK  121  A    between atoms: _293  and  _294
REMARK  122  A    between atoms: _293  and  _296
REMARK  123  A    between atoms: _296  and  _297
REMARK  124  A    between atoms: _297  and  _298
REMARK  125  A    between atoms: _298  and  _299
REMARK  126  A    between atoms: _308  and  _310
REMARK  127  A    between atoms: _310  and  _311
REMARK  128  A    between atoms: _310  and  _313
REMARK  129  A    between atoms: _313  and  _314
REMARK  130  A    between atoms: _317  and  _319
REMARK  131  A    between atoms: _319  and  _320
REMARK  132  A    between atoms: _319  and  _322
REMARK  133  A    between atoms: _322  and  _323
REMARK  134  A    between atoms: _326  and  _328
REMARK  135  A    between atoms: _328  and  _329
REMARK  136  A    between atoms: _328  and  _331
REMARK  137  A    between atoms: _331  and  _332
REMARK  138  A    between atoms: _335  and  _337
REMARK  139  A    between atoms: _337  and  _338
REMARK  140  A    between atoms: _337  and  _340
REMARK  141  A    between atoms: _340  and  _341
REMARK  142  A    between atoms: _344  and  _346
REMARK  143  A    between atoms: _346  and  _347
REMARK  144  A    between atoms: _349  and  _351
REMARK  145  A    between atoms: _351  and  _352
REMARK  146  A    between atoms: _355  and  _357
REMARK  147  A    between atoms: _357  and  _358
REMARK  148  A    between atoms: _357  and  _360
REMARK  149  A    between atoms: _360  and  _361
REMARK  150  A    between atoms: _364  and  _366
REMARK  151  A    between atoms: _366  and  _367
REMARK  152  A    between atoms: _366  and  _369
REMARK  153  A    between atoms: _369  and  _370
REMARK  154  A    between atoms: _373  and  _375
REMARK  155  A    between atoms: _375  and  _376
REMARK  156  A    between atoms: _375  and  _378
REMARK  157  A    between atoms: _378  and  _379
REMARK  158  A    between atoms: _382  and  _384
REMARK  159  A    between atoms: _384  and  _385
REMARK  160  A    between atoms: _384  and  _387
REMARK  161  A    between atoms: _390  and  _392
REMARK  162  A    between atoms: _392  and  _393
REMARK  163  A    between atoms: _392  and  _395
REMARK  164  A    between atoms: _395  and  _396
REMARK  165  A    between atoms: _396  and  _397
REMARK  166  A    between atoms: _397  and  _398
REMARK  167  A    between atoms: _398  and  _399
REMARK  168  A    between atoms: _403  and  _405
REMARK  169  A    between atoms: _405  and  _406
REMARK  170  A    between atoms: _405  and  _408
REMARK  171  A    between atoms: _408  and  _409
REMARK  172  A    between atoms: _409  and  _410
REMARK  173  A    between atoms: _412  and  _414
REMARK  174  A    between atoms: _414  and  _415
REMARK  175  A    between atoms: _414  and  _417
REMARK  176  A    between atoms: _417  and  _418
REMARK  177  A    between atoms: _421  and  _423
REMARK  178  A    between atoms: _423  and  _424
REMARK  179  A    between atoms: _426  and  _428
REMARK  180  A    between atoms: _428  and  _429
REMARK  181  A    between atoms: _431  and  _433
REMARK  182  A    between atoms: _433  and  _434
REMARK  183  A    between atoms: _433  and  _436
REMARK  184  A    between atoms: _436  and  _437
REMARK  185  A    between atoms: _440  and  _442
REMARK  186  A    between atoms: _442  and  _443
REMARK  187  A    between atoms: _445  and  _447
REMARK  188  A    between atoms: _447  and  _448
REMARK  189  A    between atoms: _450  and  _452
REMARK  190  A    between atoms: _452  and  _453
REMARK  191  A    between atoms: _452  and  _455
REMARK  192  A    between atoms: _455  and  _456
REMARK  193  A    between atoms: _462  and  _464
REMARK  194  A    between atoms: _464  and  _465
REMARK  195  A    between atoms: _464  and  _467
REMARK  196  A    between atoms: _467  and  _468
REMARK  197  A    between atoms: _471  and  _473
REMARK  198  A    between atoms: _473  and  _474
REMARK  199  A    between atoms: _473  and  _476
REMARK  200  A    between atoms: _476  and  _477
REMARK  201  A    between atoms: _480  and  _482
REMARK  202  A    between atoms: _482  and  _483
REMARK  203  A    between atoms: _482  and  _485
REMARK  204  A    between atoms: _485  and  _486
REMARK  205  A    between atoms: _490  and  _491
REMARK  206  A    between atoms: _496  and  _498
REMARK  207  A    between atoms: _498  and  _499
REMARK  208  A    between atoms: _498  and  _501
REMARK  209  A    between atoms: _504  and  _506
REMARK  210  A    between atoms: _506  and  _507
REMARK  211  A    between atoms: _506  and  _509
REMARK  212  A    between atoms: _509  and  _510
REMARK  213  A    between atoms: _515  and  _517
REMARK  214  A    between atoms: _517  and  _518
REMARK  215  A    between atoms: _517  and  _520
REMARK  216  A    between atoms: _520  and  _521
REMARK  217  A    between atoms: _524  and  _526
REMARK  218  A    between atoms: _526  and  _527
REMARK  219  A    between atoms: _526  and  _529
REMARK  220  A    between atoms: _529  and  _530
REMARK  221  A    between atoms: _533  and  _535
REMARK  222  A    between atoms: _535  and  _536
REMARK  223  A    between atoms: _538  and  _540
REMARK  224  A    between atoms: _540  and  _541
REMARK  225  A    between atoms: _540  and  _543
REMARK  226  A    between atoms: _543  and  _544
REMARK  227  A    between atoms: _544  and  _545
REMARK  228  A    between atoms: _545  and  _546
REMARK  229  A    between atoms: _555  and  _557
REMARK  230  A    between atoms: _557  and  _558
REMARK  231  A    between atoms: _557  and  _560
REMARK  232  A    between atoms: _560  and  _561
REMARK                            x       y       z     vdW  Elec       q    Type
REMARK                         _______ _______ _______ _____ _____    ______ ____
ROOT
ATOM      1  O   HOH     1      16.972  15.370   9.278  0.00  0.00    +0.000 OA
ENDROOT
TORSDOF 0
REMARK  Name = ../refined-set-2016/3djk/3djk_pocket.pdb
REMARK  232 active torsions:
REMARK  status: ('A' for Active; 'I' for Inactive)
REMARK    1  A    between atoms: _1  and  _3
REMARK    2  A    between atoms: _3  and  _4
REMARK    3  A    between atoms: _3  and  _6
REMARK    4  A    between atoms: _6  and  _7
REMARK    5  A    between atoms: _7  and  _8
REMARK    6  A    between atoms: _8  and  _9
REMARK    7  A    between atoms: _9  and  _11
REMARK    8  A    between atoms: _11  and  _15
REMARK    9  A    between atoms: _18  and  _20
REMARK   10  A    between atoms: _20  and  _21
REMARK   11  A    between atoms: _20  and  _23
REMARK   12  A    between atoms: _23  and  _24
REMARK   13  A    between atoms: _27  and  _29
REMARK   14  A    between atoms: _29  and  _30
REMARK   15  A    between atoms: _29  and  _32
REMARK   16  A    between atoms: _32  and  _33
REMARK   17  A    between atoms: _36  and  _38
REMARK   18  A    between atoms: _38  and  _39
REMARK   19  A    between atoms: _38  and  _41
REMARK   20  A    between atoms: _41  and  _42
REMARK   21  A    between atoms: _45  and  _47
REMARK   22  A    between atoms: _47  and  _48
REMARK   23  A    between atoms: _47  and  _50
REMARK   24  A    between atoms: _50  and  _51
REMARK   25  A    between atoms: _54  and  _56
REMARK   26  A    between atoms: _56  and  _57
REMARK   27  A    between atoms: _59  and  _61
REMARK   28  A    between atoms: _61  and  _62
REMARK   29  A    between atoms: _65  and  _67
REMARK   30  A    between atoms: _67  and  _68
REMARK   31  A    between atoms: _67  and  _70
REMARK   32  A    between atoms: _70  and  _71
REMARK   33  A    between atoms: _74  and  _76
REMARK   34  A    between atoms: _76  and  _77
REMARK   35  A    between atoms: _76  and  _79
REMARK   36  A    between atoms: _79  and  _80
REMARK   37  A    between atoms: _83  and  _85
REMARK   38  A    between atoms: _85  and  _86
REMARK   39  A    between atoms: _85  and  _88
REMARK   40  A    between atoms: _88  and  _89
REMARK   41  A    between atoms: _92  and  _94
REMARK   42  A    between atoms: _94  and  _95
REMARK   43  A    between atoms: _94  and  _97
REMARK   44  A    between atoms: _100  and  _102
REMARK   45  A    between atoms: _102  and  _103
REMARK   46  A    between atoms: _102  and  _105
REMARK   47  A    between atoms: _105  and  _106
REMARK   48  A    between atoms: _106  and  _107
REMARK   49  A    between atoms: _107  and  _108
REMARK   50  A    between atoms: _108  and  _109
REMARK   51  A    between atoms: _113  and  _115
REMARK   52  A    between atoms: _115  and  _116
REMARK   53  A    between atoms: _115  and  _118
REMARK   54  A    between atoms: _118  and  _119
REMARK   55  A    between atoms: _119  and  _120
REMARK   56  A    between atoms: _122  and  _124
REMARK   57  A    between atoms: _124  and  _125
REMARK   58  A    between atoms: _124  and  _127
REMARK   59  A    between atoms: _127  and  _128
REMARK   60  A    between atoms: _131  and  _133
REMARK   61  A    between atoms: _133  and  _134
REMARK   62  A    between atoms: _136  and  _138
REMARK   63  A    between atoms: _138  and  _139
REMARK   64  A    between atoms: _141  and  _143
REMARK   65  A    between atoms: _143  and  _144
REMARK   66  A    between atoms: _143  and  _146
REMARK   67  A    between atoms: _146  and  _147
REMARK   68  A    between atoms: _150  and  _152
REMARK   69  A    between atoms: _152  and  _153
REMARK   70  A    between atoms: _155  and  _157
REMARK   71  A    between atoms: _157  and  _158
REMARK   72  A    between atoms: _160  and  _162
REMARK   73  A    between atoms: _162  and  _163
REMARK   74  A    between atoms: _162  and  _165
REMARK   75  A    between atoms: _165  and  _166
REMARK   76  A    between atoms: _172  and  _174
REMARK   77  A    between atoms: _174  and  _175
REMARK   78  A    between atoms: _174  and  _177
REMARK   79  A    between atoms: _177  and  _178
REMARK   80  A    between atoms: _181  and  _183
REMARK   81  A    between atoms: _183  and  _184
REMARK   82  A    between atoms: _183  and  _186
REMARK   83  A    between atoms: _189  and  _191
REMARK   84  A    between atoms: _191  and  _192
REMARK   85  A    between atoms: _191  and  _194
REMARK   86  A    between atoms: _194  and  _195
REMARK   87  A    between atoms: _199  and  _200
REMARK   88  A    between atoms: _205  and  _207
REMARK   89  A    between atoms: _207  and  _208
REMARK   90  A    between atoms: _207  and  _210
REMARK   91  A    between atoms: _210  and  _211
REMARK   92  A    between atoms: _215  and  _216
REMARK   93  A    between atoms: _221  and  _223
REMARK   94  A    between atoms: _223  and  _224
REMARK   95  A    between atoms: _223  and  _226
REMARK   96  A    between atoms: _229  and  _231
REMARK   97  A    between atoms: _231  and  _232
REMARK   98  A    between atoms: _231  and  _234
REMARK   99  A    between atoms: _234  and  _235
REMARK  100  A    between atoms: _240  and  _242
REMARK  101  A    between atoms: _242  and  _243
REMARK  102  A    between atoms: _242  and  _245
REMARK  103  A    between atoms: _245  and  _246
REMARK  104  A    between atoms: _249  and  _251
REMARK  105  A    between atoms: _251  and  _252
REMARK  106  A    between atoms: _251  and  _254
REMARK  107  A    between atoms: _254  and  _255
REMARK  108  A    between atoms: _258  and  _260
REMARK  109  A    between atoms: _260  and  _261
REMARK  110  A    between atoms: _263  and  _265
REMARK  111  A    between atoms: _265  and  _266
REMARK  112  A    between atoms: _265  and  _268
REMARK  113  A    between atoms: _268  and  _269
REMARK  114  A    between atoms: _269  and  _270
REMARK  115  A    between atoms: _270  and  _271
REMARK  116  A    between atoms: _280  and  _282
REMARK  117  A    between atoms: _282  and  _283
REMARK  118  A    between atoms: _282  and  _285
REMARK  119  A    between atoms: _285  and  _286
REMARK  120  A    between atoms: _291  and  _293
REMARK  121  A    between atoms: _293  and  _294
REMARK  122  A    between atoms: _293  and  _296
REMARK  123  A    between atoms: _296  and  _297
REMARK  124  A    between atoms: _297  and  _298
REMARK  125  A    between atoms: _298  and  _299
REMARK  126  A    between atoms: _308  and  _310
REMARK  127  A    between atoms: _310  and  _311
REMARK  128  A    between atoms: _310  and  _313
REMARK  129  A    between atoms: _313  and  _314
REMARK  130  A    between atoms: _317  and  _319
REMARK  131  A    between atoms: _319  and  _320
REMARK  132  A    between atoms: _319  and  _322
REMARK  133  A    between atoms: _322  and  _323
REMARK  134  A    between atoms: _326  and  _328
REMARK  135  A    between atoms: _328  and  _329
REMARK  136  A    between atoms: _328  and  _331
REMARK  137  A    between atoms: _331  and  _332
REMARK  138  A    between atoms: _335  and  _337
REMARK  139  A    between atoms: _337  and  _338
REMARK  140  A    between atoms: _337  and  _340
REMARK  141  A    between atoms: _340  and  _341
REMARK  142  A    between atoms: _344  and  _346
REMARK  143  A    between atoms: _346  and  _347
REMARK  144  A    between atoms: _349  and  _351
REMARK  145  A    between atoms: _351  and  _352
REMARK  146  A    between atoms: _355  and  _357
REMARK  147  A    between atoms: _357  and  _358
REMARK  148  A    between atoms: _357  and  _360
REMARK  149  A    between atoms: _360  and  _361
REMARK  150  A    between atoms: _364  and  _366
REMARK  151  A    between atoms: _366  and  _367
REMARK  152  A    between atoms: _366  and  _369
REMARK  153  A    between atoms: _369  and  _370
REMARK  154  A    between atoms: _373  and  _375
REMARK  155  A    between atoms: _375  and  _376
REMARK  156  A    between atoms: _375  and  _378
REMARK  157  A    between atoms: _378  and  _379
REMARK  158  A    between atoms: _382  and  _384
REMARK  159  A    between atoms: _384  and  _385
REMARK  160  A    between atoms: _384  and  _387
REMARK  161  A    between atoms: _390  and  _392
REMARK  162  A    between atoms: _392  and  _393
REMARK  163  A    between atoms: _392  and  _395
REMARK  164  A    between atoms: _395  and  _396
REMARK  165  A    between atoms: _396  and  _397
REMARK  166  A    between atoms: _397  and  _398
REMARK  167  A    between atoms: _398  and  _399
REMARK  168  A    between atoms: _403  and  _405
REMARK  169  A    between atoms: _405  and  _406
REMARK  170  A    between atoms: _405  and  _408
REMARK  171  A    between atoms: _408  and  _409
REMARK  172  A    between atoms: _409  and  _410
REMARK  173  A    between atoms: _412  and  _414
REMARK  174  A    between atoms: _414  and  _415
REMARK  175  A    between atoms: _414  and  _417
REMARK  176  A    between atoms: _417  and  _418
REMARK  177  A    between atoms: _421  and  _423
REMARK  178  A    between atoms: _423  and  _424
REMARK  179  A    between atoms: _426  and  _428
REMARK  180  A    between atoms: _428  and  _429
REMARK  181  A    between atoms: _431  and  _433
REMARK  182  A    between atoms: _433  and  _434
REMARK  183  A    between atoms: _433  and  _436
REMARK  184  A    between atoms: _436  and  _437
REMARK  185  A    between atoms: _440  and  _442
REMARK  186  A    between atoms: _442  and  _443
REMARK  187  A    between atoms: _445  and  _447
REMARK  188  A    between atoms: _447  and  _448
REMARK  189  A    between atoms: _450  and  _452
REMARK  190  A    between atoms: _452  and  _453
REMARK  191  A    between atoms: _452  and  _455
REMARK  192  A    between atoms: _455  and  _456
REMARK  193  A    between atoms: _462  and  _464
REMARK  194  A    between atoms: _464  and  _465
REMARK  195  A    between atoms: _464  and  _467
REMARK  196  A    between atoms: _467  and  _468
REMARK  197  A    between atoms: _471  and  _473
REMARK  198  A    between atoms: _473  and  _474
REMARK  199  A    between atoms: _473  and  _476
REMARK  200  A    between atoms: _476  and  _477
REMARK  201  A    between atoms: _480  and  _482
REMARK  202  A    between atoms: _482  and  _483
REMARK  203  A    between atoms: _482  and  _485
REMARK  204  A    between atoms: _485  and  _486
REMARK  205  A    between atoms: _490  and  _491
REMARK  206  A    between atoms: _496  and  _498
REMARK  207  A    between atoms: _498  and  _499
REMARK  208  A    between atoms: _498  and  _501
REMARK  209  A    between atoms: _504  and  _506
REMARK  210  A    between atoms: _506  and  _507
REMARK  211  A    between atoms: _506  and  _509
REMARK  212  A    between atoms: _509  and  _510
REMARK  213  A    between atoms: _515  and  _517
REMARK  214  A    between atoms: _517  and  _518
REMARK  215  A    between atoms: _517  and  _520
REMARK  216  A    between atoms: _520  and  _521
REMARK  217  A    between atoms: _524  and  _526
REMARK  218  A    between atoms: _526  and  _527
REMARK  219  A    between atoms: _526  and  _529
REMARK  220  A    between atoms: _529  and  _530
REMARK  221  A    between atoms: _533  and  _535
REMARK  222  A    between atoms: _535  and  _536
REMARK  223  A    between atoms: _538  and  _540
REMARK  224  A    between atoms: _540  and  _541
REMARK  225  A    between atoms: _540  and  _543
REMARK  226  A    between atoms: _543  and  _544
REMARK  227  A    between atoms: _544  and  _545
REMARK  228  A    between atoms: _545  and  _546
REMARK  229  A    between atoms: _555  and  _557
REMARK  230  A    between atoms: _557  and  _558
REMARK  231  A    between atoms: _557  and  _560
REMARK  232  A    between atoms: _560  and  _561
REMARK                            x       y       z     vdW  Elec       q    Type
REMARK                         _______ _______ _______ _____ _____    ______ ____
ROOT
ATOM      1  O   HOH     1       6.920  12.731  24.282  0.00  0.00    +0.000 OA
ENDROOT
TORSDOF 0
REMARK  Name = ../refined-set-2016/3djk/3djk_pocket.pdb
REMARK  232 active torsions:
REMARK  status: ('A' for Active; 'I' for Inactive)
REMARK    1  A    between atoms: _1  and  _3
REMARK    2  A    between atoms: _3  and  _4
REMARK    3  A    between atoms: _3  and  _6
REMARK    4  A    between atoms: _6  and  _7
REMARK    5  A    between atoms: _7  and  _8
REMARK    6  A    between atoms: _8  and  _9
REMARK    7  A    between atoms: _9  and  _11
REMARK    8  A    between atoms: _11  and  _15
REMARK    9  A    between atoms: _18  and  _20
REMARK   10  A    between atoms: _20  and  _21
REMARK   11  A    between atoms: _20  and  _23
REMARK   12  A    between atoms: _23  and  _24
REMARK   13  A    between atoms: _27  and  _29
REMARK   14  A    between atoms: _29  and  _30
REMARK   15  A    between atoms: _29  and  _32
REMARK   16  A    between atoms: _32  and  _33
REMARK   17  A    between atoms: _36  and  _38
REMARK   18  A    between atoms: _38  and  _39
REMARK   19  A    between atoms: _38  and  _41
REMARK   20  A    between atoms: _41  and  _42
REMARK   21  A    between atoms: _45  and  _47
REMARK   22  A    between atoms: _47  and  _48
REMARK   23  A    between atoms: _47  and  _50
REMARK   24  A    between atoms: _50  and  _51
REMARK   25  A    between atoms: _54  and  _56
REMARK   26  A    between atoms: _56  and  _57
REMARK   27  A    between atoms: _59  and  _61
REMARK   28  A    between atoms: _61  and  _62
REMARK   29  A    between atoms: _65  and  _67
REMARK   30  A    between atoms: _67  and  _68
REMARK   31  A    between atoms: _67  and  _70
REMARK   32  A    between atoms: _70  and  _71
REMARK   33  A    between atoms: _74  and  _76
REMARK   34  A    between atoms: _76  and  _77
REMARK   35  A    between atoms: _76  and  _79
REMARK   36  A    between atoms: _79  and  _80
REMARK   37  A    between atoms: _83  and  _85
REMARK   38  A    between atoms: _85  and  _86
REMARK   39  A    between atoms: _85  and  _88
REMARK   40  A    between atoms: _88  and  _89
REMARK   41  A    between atoms: _92  and  _94
REMARK   42  A    between atoms: _94  and  _95
REMARK   43  A    between atoms: _94  and  _97
REMARK   44  A    between atoms: _100  and  _102
REMARK   45  A    between atoms: _102  and  _103
REMARK   46  A    between atoms: _102  and  _105
REMARK   47  A    between atoms: _105  and  _106
REMARK   48  A    between atoms: _106  and  _107
REMARK   49  A    between atoms: _107  and  _108
REMARK   50  A    between atoms: _108  and  _109
REMARK   51  A    between atoms: _113  and  _115
REMARK   52  A    between atoms: _115  and  _116
REMARK   53  A    between atoms: _115  and  _118
REMARK   54  A    between atoms: _118  and  _119
REMARK   55  A    between atoms: _119  and  _120
REMARK   56  A    between atoms: _122  and  _124
REMARK   57  A    between atoms: _124  and  _125
REMARK   58  A    between atoms: _124  and  _127
REMARK   59  A    between atoms: _127  and  _128
REMARK   60  A    between atoms: _131  and  _133
REMARK   61  A    between atoms: _133  and  _134
REMARK   62  A    between atoms: _136  and  _138
REMARK   63  A    between atoms: _138  and  _139
REMARK   64  A    between atoms: _141  and  _143
REMARK   65  A    between atoms: _143  and  _144
REMARK   66  A    between atoms: _143  and  _146
REMARK   67  A    between atoms: _146  and  _147
REMARK   68  A    between atoms: _150  and  _152
REMARK   69  A    between atoms: _152  and  _153
REMARK   70  A    between atoms: _155  and  _157
REMARK   71  A    between atoms: _157  and  _158
REMARK   72  A    between atoms: _160  and  _162
REMARK   73  A    between atoms: _162  and  _163
REMARK   74  A    between atoms: _162  and  _165
REMARK   75  A    between atoms: _165  and  _166
REMARK   76  A    between atoms: _172  and  _174
REMARK   77  A    between atoms: _174  and  _175
REMARK   78  A    between atoms: _174  and  _177
REMARK   79  A    between atoms: _177  and  _178
REMARK   80  A    between atoms: _181  and  _183
REMARK   81  A    between atoms: _183  and  _184
REMARK   82  A    between atoms: _183  and  _186
REMARK   83  A    between atoms: _189  and  _191
REMARK   84  A    between atoms: _191  and  _192
REMARK   85  A    between atoms: _191  and  _194
REMARK   86  A    between atoms: _194  and  _195
REMARK   87  A    between atoms: _199  and  _200
REMARK   88  A    between atoms: _205  and  _207
REMARK   89  A    between atoms: _207  and  _208
REMARK   90  A    between atoms: _207  and  _210
REMARK   91  A    between atoms: _210  and  _211
REMARK   92  A    between atoms: _215  and  _216
REMARK   93  A    between atoms: _221  and  _223
REMARK   94  A    between atoms: _223  and  _224
REMARK   95  A    between atoms: _223  and  _226
REMARK   96  A    between atoms: _229  and  _231
REMARK   97  A    between atoms: _231  and  _232
REMARK   98  A    between atoms: _231  and  _234
REMARK   99  A    between atoms: _234  and  _235
REMARK  100  A    between atoms: _240  and  _242
REMARK  101  A    between atoms: _242  and  _243
REMARK  102  A    between atoms: _242  and  _245
REMARK  103  A    between atoms: _245  and  _246
REMARK  104  A    between atoms: _249  and  _251
REMARK  105  A    between atoms: _251  and  _252
REMARK  106  A    between atoms: _251  and  _254
REMARK  107  A    between atoms: _254  and  _255
REMARK  108  A    between atoms: _258  and  _260
REMARK  109  A    between atoms: _260  and  _261
REMARK  110  A    between atoms: _263  and  _265
REMARK  111  A    between atoms: _265  and  _266
REMARK  112  A    between atoms: _265  and  _268
REMARK  113  A    between atoms: _268  and  _269
REMARK  114  A    between atoms: _269  and  _270
REMARK  115  A    between atoms: _270  and  _271
REMARK  116  A    between atoms: _280  and  _282
REMARK  117  A    between atoms: _282  and  _283
REMARK  118  A    between atoms: _282  and  _285
REMARK  119  A    between atoms: _285  and  _286
REMARK  120  A    between atoms: _291  and  _293
REMARK  121  A    between atoms: _293  and  _294
REMARK  122  A    between atoms: _293  and  _296
REMARK  123  A    between atoms: _296  and  _297
REMARK  124  A    between atoms: _297  and  _298
REMARK  125  A    between atoms: _298  and  _299
REMARK  126  A    between atoms: _308  and  _310
REMARK  127  A    between atoms: _310  and  _311
REMARK  128  A    between atoms: _310  and  _313
REMARK  129  A    between atoms: _313  and  _314
REMARK  130  A    between atoms: _317  and  _319
REMARK  131  A    between atoms: _319  and  _320
REMARK  132  A    between atoms: _319  and  _322
REMARK  133  A    between atoms: _322  and  _323
REMARK  134  A    between atoms: _326  and  _328
REMARK  135  A    between atoms: _328  and  _329
REMARK  136  A    between atoms: _328  and  _331
REMARK  137  A    between atoms: _331  and  _332
REMARK  138  A    between atoms: _335  and  _337
REMARK  139  A    between atoms: _337  and  _338
REMARK  140  A    between atoms: _337  and  _340
REMARK  141  A    between atoms: _340  and  _341
REMARK  142  A    between atoms: _344  and  _346
REMARK  143  A    between atoms: _346  and  _347
REMARK  144  A    between atoms: _349  and  _351
REMARK  145  A    between atoms: _351  and  _352
REMARK  146  A    between atoms: _355  and  _357
REMARK  147  A    between atoms: _357  and  _358
REMARK  148  A    between atoms: _357  and  _360
REMARK  149  A    between atoms: _360  and  _361
REMARK  150  A    between atoms: _364  and  _366
REMARK  151  A    between atoms: _366  and  _367
REMARK  152  A    between atoms: _366  and  _369
REMARK  153  A    between atoms: _369  and  _370
REMARK  154  A    between atoms: _373  and  _375
REMARK  155  A    between atoms: _375  and  _376
REMARK  156  A    between atoms: _375  and  _378
REMARK  157  A    between atoms: _378  and  _379
REMARK  158  A    between atoms: _382  and  _384
REMARK  159  A    between atoms: _384  and  _385
REMARK  160  A    between atoms: _384  and  _387
REMARK  161  A    between atoms: _390  and  _392
REMARK  162  A    between atoms: _392  and  _393
REMARK  163  A    between atoms: _392  and  _395
REMARK  164  A    between atoms: _395  and  _396
REMARK  165  A    between atoms: _396  and  _397
REMARK  166  A    between atoms: _397  and  _398
REMARK  167  A    between atoms: _398  and  _399
REMARK  168  A    between atoms: _403  and  _405
REMARK  169  A    between atoms: _405  and  _406
REMARK  170  A    between atoms: _405  and  _408
REMARK  171  A    between atoms: _408  and  _409
REMARK  172  A    between atoms: _409  and  _410
REMARK  173  A    between atoms: _412  and  _414
REMARK  174  A    between atoms: _414  and  _415
REMARK  175  A    between atoms: _414  and  _417
REMARK  176  A    between atoms: _417  and  _418
REMARK  177  A    between atoms: _421  and  _423
REMARK  178  A    between atoms: _423  and  _424
REMARK  179  A    between atoms: _426  and  _428
REMARK  180  A    between atoms: _428  and  _429
REMARK  181  A    between atoms: _431  and  _433
REMARK  182  A    between atoms: _433  and  _434
REMARK  183  A    between atoms: _433  and  _436
REMARK  184  A    between atoms: _436  and  _437
REMARK  185  A    between atoms: _440  and  _442
REMARK  186  A    between atoms: _442  and  _443
REMARK  187  A    between atoms: _445  and  _447
REMARK  188  A    between atoms: _447  and  _448
REMARK  189  A    between atoms: _450  and  _452
REMARK  190  A    between atoms: _452  and  _453
REMARK  191  A    between atoms: _452  and  _455
REMARK  192  A    between atoms: _455  and  _456
REMARK  193  A    between atoms: _462  and  _464
REMARK  194  A    between atoms: _464  and  _465
REMARK  195  A    between atoms: _464  and  _467
REMARK  196  A    between atoms: _467  and  _468
REMARK  197  A    between atoms: _471  and  _473
REMARK  198  A    between atoms: _473  and  _474
REMARK  199  A    between atoms: _473  and  _476
REMARK  200  A    between atoms: _476  and  _477
REMARK  201  A    between atoms: _480  and  _482
REMARK  202  A    between atoms: _482  and  _483
REMARK  203  A    between atoms: _482  and  _485
REMARK  204  A    between atoms: _485  and  _486
REMARK  205  A    between atoms: _490  and  _491
REMARK  206  A    between atoms: _496  and  _498
REMARK  207  A    between atoms: _498  and  _499
REMARK  208  A    between atoms: _498  and  _501
REMARK  209  A    between atoms: _504  and  _506
REMARK  210  A    between atoms: _506  and  _507
REMARK  211  A    between atoms: _506  and  _509
REMARK  212  A    between atoms: _509  and  _510
REMARK  213  A    between atoms: _515  and  _517
REMARK  214  A    between atoms: _517  and  _518
REMARK  215  A    between atoms: _517  and  _520
REMARK  216  A    between atoms: _520  and  _521
REMARK  217  A    between atoms: _524  and  _526
REMARK  218  A    between atoms: _526  and  _527
REMARK  219  A    between atoms: _526  and  _529
REMARK  220  A    between atoms: _529  and  _530
REMARK  221  A    between atoms: _533  and  _535
REMARK  222  A    between atoms: _535  and  _536
REMARK  223  A    between atoms: _538  and  _540
REMARK  224  A    between atoms: _540  and  _541
REMARK  225  A    between atoms: _540  and  _543
REMARK  226  A    between atoms: _543  and  _544
REMARK  227  A    between atoms: _544  and  _545
REMARK  228  A    between atoms: _545  and  _546
REMARK  229  A    between atoms: _555  and  _557
REMARK  230  A    between atoms: _557  and  _558
REMARK  231  A    between atoms: _557  and  _560
REMARK  232  A    between atoms: _560  and  _561
REMARK                            x       y       z     vdW  Elec       q    Type
REMARK                         _______ _______ _______ _____ _____    ______ ____
ROOT
ATOM      1  O   HOH     1       4.344  19.220  22.520  0.00  0.00    +0.000 OA
ENDROOT
TORSDOF 0
REMARK  Name = ../refined-set-2016/3djk/3djk_pocket.pdb
REMARK  232 active torsions:
REMARK  status: ('A' for Active; 'I' for Inactive)
REMARK    1  A    between atoms: _1  and  _3
REMARK    2  A    between atoms: _3  and  _4
REMARK    3  A    between atoms: _3  and  _6
REMARK    4  A    between atoms: _6  and  _7
REMARK    5  A    between atoms: _7  and  _8
REMARK    6  A    between atoms: _8  and  _9
REMARK    7  A    between atoms: _9  and  _11
REMARK    8  A    between atoms: _11  and  _15
REMARK    9  A    between atoms: _18  and  _20
REMARK   10  A    between atoms: _20  and  _21
REMARK   11  A    between atoms: _20  and  _23
REMARK   12  A    between atoms: _23  and  _24
REMARK   13  A    between atoms: _27  and  _29
REMARK   14  A    between atoms: _29  and  _30
REMARK   15  A    between atoms: _29  and  _32
REMARK   16  A    between atoms: _32  and  _33
REMARK   17  A    between atoms: _36  and  _38
REMARK   18  A    between atoms: _38  and  _39
REMARK   19  A    between atoms: _38  and  _41
REMARK   20  A    between atoms: _41  and  _42
REMARK   21  A    between atoms: _45  and  _47
REMARK   22  A    between atoms: _47  and  _48
REMARK   23  A    between atoms: _47  and  _50
REMARK   24  A    between atoms: _50  and  _51
REMARK   25  A    between atoms: _54  and  _56
REMARK   26  A    between atoms: _56  and  _57
REMARK   27  A    between atoms: _59  and  _61
REMARK   28  A    between atoms: _61  and  _62
REMARK   29  A    between atoms: _65  and  _67
REMARK   30  A    between atoms: _67  and  _68
REMARK   31  A    between atoms: _67  and  _70
REMARK   32  A    between atoms: _70  and  _71
REMARK   33  A    between atoms: _74  and  _76
REMARK   34  A    between atoms: _76  and  _77
REMARK   35  A    between atoms: _76  and  _79
REMARK   36  A    between atoms: _79  and  _80
REMARK   37  A    between atoms: _83  and  _85
REMARK   38  A    between atoms: _85  and  _86
REMARK   39  A    between atoms: _85  and  _88
REMARK   40  A    between atoms: _88  and  _89
REMARK   41  A    between atoms: _92  and  _94
REMARK   42  A    between atoms: _94  and  _95
REMARK   43  A    between atoms: _94  and  _97
REMARK   44  A    between atoms: _100  and  _102
REMARK   45  A    between atoms: _102  and  _103
REMARK   46  A    between atoms: _102  and  _105
REMARK   47  A    between atoms: _105  and  _106
REMARK   48  A    between atoms: _106  and  _107
REMARK   49  A    between atoms: _107  and  _108
REMARK   50  A    between atoms: _108  and  _109
REMARK   51  A    between atoms: _113  and  _115
REMARK   52  A    between atoms: _115  and  _116
REMARK   53  A    between atoms: _115  and  _118
REMARK   54  A    between atoms: _118  and  _119
REMARK   55  A    between atoms: _119  and  _120
REMARK   56  A    between atoms: _122  and  _124
REMARK   57  A    between atoms: _124  and  _125
REMARK   58  A    between atoms: _124  and  _127
REMARK   59  A    between atoms: _127  and  _128
REMARK   60  A    between atoms: _131  and  _133
REMARK   61  A    between atoms: _133  and  _134
REMARK   62  A    between atoms: _136  and  _138
REMARK   63  A    between atoms: _138  and  _139
REMARK   64  A    between atoms: _141  and  _143
REMARK   65  A    between atoms: _143  and  _144
REMARK   66  A    between atoms: _143  and  _146
REMARK   67  A    between atoms: _146  and  _147
REMARK   68  A    between atoms: _150  and  _152
REMARK   69  A    between atoms: _152  and  _153
REMARK   70  A    between atoms: _155  and  _157
REMARK   71  A    between atoms: _157  and  _158
REMARK   72  A    between atoms: _160  and  _162
REMARK   73  A    between atoms: _162  and  _163
REMARK   74  A    between atoms: _162  and  _165
REMARK   75  A    between atoms: _165  and  _166
REMARK   76  A    between atoms: _172  and  _174
REMARK   77  A    between atoms: _174  and  _175
REMARK   78  A    between atoms: _174  and  _177
REMARK   79  A    between atoms: _177  and  _178
REMARK   80  A    between atoms: _181  and  _183
REMARK   81  A    between atoms: _183  and  _184
REMARK   82  A    between atoms: _183  and  _186
REMARK   83  A    between atoms: _189  and  _191
REMARK   84  A    between atoms: _191  and  _192
REMARK   85  A    between atoms: _191  and  _194
REMARK   86  A    between atoms: _194  and  _195
REMARK   87  A    between atoms: _199  and  _200
REMARK   88  A    between atoms: _205  and  _207
REMARK   89  A    between atoms: _207  and  _208
REMARK   90  A    between atoms: _207  and  _210
REMARK   91  A    between atoms: _210  and  _211
REMARK   92  A    between atoms: _215  and  _216
REMARK   93  A    between atoms: _221  and  _223
REMARK   94  A    between atoms: _223  and  _224
REMARK   95  A    between atoms: _223  and  _226
REMARK   96  A    between atoms: _229  and  _231
REMARK   97  A    between atoms: _231  and  _232
REMARK   98  A    between atoms: _231  and  _234
REMARK   99  A    between atoms: _234  and  _235
REMARK  100  A    between atoms: _240  and  _242
REMARK  101  A    between atoms: _242  and  _243
REMARK  102  A    between atoms: _242  and  _245
REMARK  103  A    between atoms: _245  and  _246
REMARK  104  A    between atoms: _249  and  _251
REMARK  105  A    between atoms: _251  and  _252
REMARK  106  A    between atoms: _251  and  _254
REMARK  107  A    between atoms: _254  and  _255
REMARK  108  A    between atoms: _258  and  _260
REMARK  109  A    between atoms: _260  and  _261
REMARK  110  A    between atoms: _263  and  _265
REMARK  111  A    between atoms: _265  and  _266
REMARK  112  A    between atoms: _265  and  _268
REMARK  113  A    between atoms: _268  and  _269
REMARK  114  A    between atoms: _269  and  _270
REMARK  115  A    between atoms: _270  and  _271
REMARK  116  A    between atoms: _280  and  _282
REMARK  117  A    between atoms: _282  and  _283
REMARK  118  A    between atoms: _282  and  _285
REMARK  119  A    between atoms: _285  and  _286
REMARK  120  A    between atoms: _291  and  _293
REMARK  121  A    between atoms: _293  and  _294
REMARK  122  A    between atoms: _293  and  _296
REMARK  123  A    between atoms: _296  and  _297
REMARK  124  A    between atoms: _297  and  _298
REMARK  125  A    between atoms: _298  and  _299
REMARK  126  A    between atoms: _308  and  _310
REMARK  127  A    between atoms: _310  and  _311
REMARK  128  A    between atoms: _310  and  _313
REMARK  129  A    between atoms: _313  and  _314
REMARK  130  A    between atoms: _317  and  _319
REMARK  131  A    between atoms: _319  and  _320
REMARK  132  A    between atoms: _319  and  _322
REMARK  133  A    between atoms: _322  and  _323
REMARK  134  A    between atoms: _326  and  _328
REMARK  135  A    between atoms: _328  and  _329
REMARK  136  A    between atoms: _328  and  _331
REMARK  137  A    between atoms: _331  and  _332
REMARK  138  A    between atoms: _335  and  _337
REMARK  139  A    between atoms: _337  and  _338
REMARK  140  A    between atoms: _337  and  _340
REMARK  141  A    between atoms: _340  and  _341
REMARK  142  A    between atoms: _344  and  _346
REMARK  143  A    between atoms: _346  and  _347
REMARK  144  A    between atoms: _349  and  _351
REMARK  145  A    between atoms: _351  and  _352
REMARK  146  A    between atoms: _355  and  _357
REMARK  147  A    between atoms: _357  and  _358
REMARK  148  A    between atoms: _357  and  _360
REMARK  149  A    between atoms: _360  and  _361
REMARK  150  A    between atoms: _364  and  _366
REMARK  151  A    between atoms: _366  and  _367
REMARK  152  A    between atoms: _366  and  _369
REMARK  153  A    between atoms: _369  and  _370
REMARK  154  A    between atoms: _373  and  _375
REMARK  155  A    between atoms: _375  and  _376
REMARK  156  A    between atoms: _375  and  _378
REMARK  157  A    between atoms: _378  and  _379
REMARK  158  A    between atoms: _382  and  _384
REMARK  159  A    between atoms: _384  and  _385
REMARK  160  A    between atoms: _384  and  _387
REMARK  161  A    between atoms: _390  and  _392
REMARK  162  A    between atoms: _392  and  _393
REMARK  163  A    between atoms: _392  and  _395
REMARK  164  A    between atoms: _395  and  _396
REMARK  165  A    between atoms: _396  and  _397
REMARK  166  A    between atoms: _397  and  _398
REMARK  167  A    between atoms: _398  and  _399
REMARK  168  A    between atoms: _403  and  _405
REMARK  169  A    between atoms: _405  and  _406
REMARK  170  A    between atoms: _405  and  _408
REMARK  171  A    between atoms: _408  and  _409
REMARK  172  A    between atoms: _409  and  _410
REMARK  173  A    between atoms: _412  and  _414
REMARK  174  A    between atoms: _414  and  _415
REMARK  175  A    between atoms: _414  and  _417
REMARK  176  A    between atoms: _417  and  _418
REMARK  177  A    between atoms: _421  and  _423
REMARK  178  A    between atoms: _423  and  _424
REMARK  179  A    between atoms: _426  and  _428
REMARK  180  A    between atoms: _428  and  _429
REMARK  181  A    between atoms: _431  and  _433
REMARK  182  A    between atoms: _433  and  _434
REMARK  183  A    between atoms: _433  and  _436
REMARK  184  A    between atoms: _436  and  _437
REMARK  185  A    between atoms: _440  and  _442
REMARK  186  A    between atoms: _442  and  _443
REMARK  187  A    between atoms: _445  and  _447
REMARK  188  A    between atoms: _447  and  _448
REMARK  189  A    between atoms: _450  and  _452
REMARK  190  A    between atoms: _452  and  _453
REMARK  191  A    between atoms: _452  and  _455
REMARK  192  A    between atoms: _455  and  _456
REMARK  193  A    between atoms: _462  and  _464
REMARK  194  A    between atoms: _464  and  _465
REMARK  195  A    between atoms: _464  and  _467
REMARK  196  A    between atoms: _467  and  _468
REMARK  197  A    between atoms: _471  and  _473
REMARK  198  A    between atoms: _473  and  _474
REMARK  199  A    between atoms: _473  and  _476
REMARK  200  A    between atoms: _476  and  _477
REMARK  201  A    between atoms: _480  and  _482
REMARK  202  A    between atoms: _482  and  _483
REMARK  203  A    between atoms: _482  and  _485
REMARK  204  A    between atoms: _485  and  _486
REMARK  205  A    between atoms: _490  and  _491
REMARK  206  A    between atoms: _496  and  _498
REMARK  207  A    between atoms: _498  and  _499
REMARK  208  A    between atoms: _498  and  _501
REMARK  209  A    between atoms: _504  and  _506
REMARK  210  A    between atoms: _506  and  _507
REMARK  211  A    between atoms: _506  and  _509
REMARK  212  A    between atoms: _509  and  _510
REMARK  213  A    between atoms: _515  and  _517
REMARK  214  A    between atoms: _517  and  _518
REMARK  215  A    between atoms: _517  and  _520
REMARK  216  A    between atoms: _520  and  _521
REMARK  217  A    between atoms: _524  and  _526
REMARK  218  A    between atoms: _526  and  _527
REMARK  219  A    between atoms: _526  and  _529
REMARK  220  A    between atoms: _529  and  _530
REMARK  221  A    between atoms: _533  and  _535
REMARK  222  A    between atoms: _535  and  _536
REMARK  223  A    between atoms: _538  and  _540
REMARK  224  A    between atoms: _540  and  _541
REMARK  225  A    between atoms: _540  and  _543
REMARK  226  A    between atoms: _543  and  _544
REMARK  227  A    between atoms: _544  and  _545
REMARK  228  A    between atoms: _545  and  _546
REMARK  229  A    between atoms: _555  and  _557
REMARK  230  A    between atoms: _557  and  _558
REMARK  231  A    between atoms: _557  and  _560
REMARK  232  A    between atoms: _560  and  _561
REMARK                            x       y       z     vdW  Elec       q    Type
REMARK                         _______ _______ _______ _____ _____    ______ ____
ROOT
ATOM      1  O   HOH     1      11.529  16.743  13.808  0.00  0.00    +0.000 OA
ENDROOT
TORSDOF 0
REMARK  Name = ../refined-set-2016/3djk/3djk_pocket.pdb
REMARK  232 active torsions:
REMARK  status: ('A' for Active; 'I' for Inactive)
REMARK    1  A    between atoms: _1  and  _3
REMARK    2  A    between atoms: _3  and  _4
REMARK    3  A    between atoms: _3  and  _6
REMARK    4  A    between atoms: _6  and  _7
REMARK    5  A    between atoms: _7  and  _8
REMARK    6  A    between atoms: _8  and  _9
REMARK    7  A    between atoms: _9  and  _11
REMARK    8  A    between atoms: _11  and  _15
REMARK    9  A    between atoms: _18  and  _20
REMARK   10  A    between atoms: _20  and  _21
REMARK   11  A    between atoms: _20  and  _23
REMARK   12  A    between atoms: _23  and  _24
REMARK   13  A    between atoms: _27  and  _29
REMARK   14  A    between atoms: _29  and  _30
REMARK   15  A    between atoms: _29  and  _32
REMARK   16  A    between atoms: _32  and  _33
REMARK   17  A    between atoms: _36  and  _38
REMARK   18  A    between atoms: _38  and  _39
REMARK   19  A    between atoms: _38  and  _41
REMARK   20  A    between atoms: _41  and  _42
REMARK   21  A    between atoms: _45  and  _47
REMARK   22  A    between atoms: _47  and  _48
REMARK   23  A    between atoms: _47  and  _50
REMARK   24  A    between atoms: _50  and  _51
REMARK   25  A    between atoms: _54  and  _56
REMARK   26  A    between atoms: _56  and  _57
REMARK   27  A    between atoms: _59  and  _61
REMARK   28  A    between atoms: _61  and  _62
REMARK   29  A    between atoms: _65  and  _67
REMARK   30  A    between atoms: _67  and  _68
REMARK   31  A    between atoms: _67  and  _70
REMARK   32  A    between atoms: _70  and  _71
REMARK   33  A    between atoms: _74  and  _76
REMARK   34  A    between atoms: _76  and  _77
REMARK   35  A    between atoms: _76  and  _79
REMARK   36  A    between atoms: _79  and  _80
REMARK   37  A    between atoms: _83  and  _85
REMARK   38  A    between atoms: _85  and  _86
REMARK   39  A    between atoms: _85  and  _88
REMARK   40  A    between atoms: _88  and  _89
REMARK   41  A    between atoms: _92  and  _94
REMARK   42  A    between atoms: _94  and  _95
REMARK   43  A    between atoms: _94  and  _97
REMARK   44  A    between atoms: _100  and  _102
REMARK   45  A    between atoms: _102  and  _103
REMARK   46  A    between atoms: _102  and  _105
REMARK   47  A    between atoms: _105  and  _106
REMARK   48  A    between atoms: _106  and  _107
REMARK   49  A    between atoms: _107  and  _108
REMARK   50  A    between atoms: _108  and  _109
REMARK   51  A    between atoms: _113  and  _115
REMARK   52  A    between atoms: _115  and  _116
REMARK   53  A    between atoms: _115  and  _118
REMARK   54  A    between atoms: _118  and  _119
REMARK   55  A    between atoms: _119  and  _120
REMARK   56  A    between atoms: _122  and  _124
REMARK   57  A    between atoms: _124  and  _125
REMARK   58  A    between atoms: _124  and  _127
REMARK   59  A    between atoms: _127  and  _128
REMARK   60  A    between atoms: _131  and  _133
REMARK   61  A    between atoms: _133  and  _134
REMARK   62  A    between atoms: _136  and  _138
REMARK   63  A    between atoms: _138  and  _139
REMARK   64  A    between atoms: _141  and  _143
REMARK   65  A    between atoms: _143  and  _144
REMARK   66  A    between atoms: _143  and  _146
REMARK   67  A    between atoms: _146  and  _147
REMARK   68  A    between atoms: _150  and  _152
REMARK   69  A    between atoms: _152  and  _153
REMARK   70  A    between atoms: _155  and  _157
REMARK   71  A    between atoms: _157  and  _158
REMARK   72  A    between atoms: _160  and  _162
REMARK   73  A    between atoms: _162  and  _163
REMARK   74  A    between atoms: _162  and  _165
REMARK   75  A    between atoms: _165  and  _166
REMARK   76  A    between atoms: _172  and  _174
REMARK   77  A    between atoms: _174  and  _175
REMARK   78  A    between atoms: _174  and  _177
REMARK   79  A    between atoms: _177  and  _178
REMARK   80  A    between atoms: _181  and  _183
REMARK   81  A    between atoms: _183  and  _184
REMARK   82  A    between atoms: _183  and  _186
REMARK   83  A    between atoms: _189  and  _191
REMARK   84  A    between atoms: _191  and  _192
REMARK   85  A    between atoms: _191  and  _194
REMARK   86  A    between atoms: _194  and  _195
REMARK   87  A    between atoms: _199  and  _200
REMARK   88  A    between atoms: _205  and  _207
REMARK   89  A    between atoms: _207  and  _208
REMARK   90  A    between atoms: _207  and  _210
REMARK   91  A    between atoms: _210  and  _211
REMARK   92  A    between atoms: _215  and  _216
REMARK   93  A    between atoms: _221  and  _223
REMARK   94  A    between atoms: _223  and  _224
REMARK   95  A    between atoms: _223  and  _226
REMARK   96  A    between atoms: _229  and  _231
REMARK   97  A    between atoms: _231  and  _232
REMARK   98  A    between atoms: _231  and  _234
REMARK   99  A    between atoms: _234  and  _235
REMARK  100  A    between atoms: _240  and  _242
REMARK  101  A    between atoms: _242  and  _243
REMARK  102  A    between atoms: _242  and  _245
REMARK  103  A    between atoms: _245  and  _246
REMARK  104  A    between atoms: _249  and  _251
REMARK  105  A    between atoms: _251  and  _252
REMARK  106  A    between atoms: _251  and  _254
REMARK  107  A    between atoms: _254  and  _255
REMARK  108  A    between atoms: _258  and  _260
REMARK  109  A    between atoms: _260  and  _261
REMARK  110  A    between atoms: _263  and  _265
REMARK  111  A    between atoms: _265  and  _266
REMARK  112  A    between atoms: _265  and  _268
REMARK  113  A    between atoms: _268  and  _269
REMARK  114  A    between atoms: _269  and  _270
REMARK  115  A    between atoms: _270  and  _271
REMARK  116  A    between atoms: _280  and  _282
REMARK  117  A    between atoms: _282  and  _283
REMARK  118  A    between atoms: _282  and  _285
REMARK  119  A    between atoms: _285  and  _286
REMARK  120  A    between atoms: _291  and  _293
REMARK  121  A    between atoms: _293  and  _294
REMARK  122  A    between atoms: _293  and  _296
REMARK  123  A    between atoms: _296  and  _297
REMARK  124  A    between atoms: _297  and  _298
REMARK  125  A    between atoms: _298  and  _299
REMARK  126  A    between atoms: _308  and  _310
REMARK  127  A    between atoms: _310  and  _311
REMARK  128  A    between atoms: _310  and  _313
REMARK  129  A    between atoms: _313  and  _314
REMARK  130  A    between atoms: _317  and  _319
REMARK  131  A    between atoms: _319  and  _320
REMARK  132  A    between atoms: _319  and  _322
REMARK  133  A    between atoms: _322  and  _323
REMARK  134  A    between atoms: _326  and  _328
REMARK  135  A    between atoms: _328  and  _329
REMARK  136  A    between atoms: _328  and  _331
REMARK  137  A    between atoms: _331  and  _332
REMARK  138  A    between atoms: _335  and  _337
REMARK  139  A    between atoms: _337  and  _338
REMARK  140  A    between atoms: _337  and  _340
REMARK  141  A    between atoms: _340  and  _341
REMARK  142  A    between atoms: _344  and  _346
REMARK  143  A    between atoms: _346  and  _347
REMARK  144  A    between atoms: _349  and  _351
REMARK  145  A    between atoms: _351  and  _352
REMARK  146  A    between atoms: _355  and  _357
REMARK  147  A    between atoms: _357  and  _358
REMARK  148  A    between atoms: _357  and  _360
REMARK  149  A    between atoms: _360  and  _361
REMARK  150  A    between atoms: _364  and  _366
REMARK  151  A    between atoms: _366  and  _367
REMARK  152  A    between atoms: _366  and  _369
REMARK  153  A    between atoms: _369  and  _370
REMARK  154  A    between atoms: _373  and  _375
REMARK  155  A    between atoms: _375  and  _376
REMARK  156  A    between atoms: _375  and  _378
REMARK  157  A    between atoms: _378  and  _379
REMARK  158  A    between atoms: _382  and  _384
REMARK  159  A    between atoms: _384  and  _385
REMARK  160  A    between atoms: _384  and  _387
REMARK  161  A    between atoms: _390  and  _392
REMARK  162  A    between atoms: _392  and  _393
REMARK  163  A    between atoms: _392  and  _395
REMARK  164  A    between atoms: _395  and  _396
REMARK  165  A    between atoms: _396  and  _397
REMARK  166  A    between atoms: _397  and  _398
REMARK  167  A    between atoms: _398  and  _399
REMARK  168  A    between atoms: _403  and  _405
REMARK  169  A    between atoms: _405  and  _406
REMARK  170  A    between atoms: _405  and  _408
REMARK  171  A    between atoms: _408  and  _409
REMARK  172  A    between atoms: _409  and  _410
REMARK  173  A    between atoms: _412  and  _414
REMARK  174  A    between atoms: _414  and  _415
REMARK  175  A    between atoms: _414  and  _417
REMARK  176  A    between atoms: _417  and  _418
REMARK  177  A    between atoms: _421  and  _423
REMARK  178  A    between atoms: _423  and  _424
REMARK  179  A    between atoms: _426  and  _428
REMARK  180  A    between atoms: _428  and  _429
REMARK  181  A    between atoms: _431  and  _433
REMARK  182  A    between atoms: _433  and  _434
REMARK  183  A    between atoms: _433  and  _436
REMARK  184  A    between atoms: _436  and  _437
REMARK  185  A    between atoms: _440  and  _442
REMARK  186  A    between atoms: _442  and  _443
REMARK  187  A    between atoms: _445  and  _447
REMARK  188  A    between atoms: _447  and  _448
REMARK  189  A    between atoms: _450  and  _452
REMARK  190  A    between atoms: _452  and  _453
REMARK  191  A    between atoms: _452  and  _455
REMARK  192  A    between atoms: _455  and  _456
REMARK  193  A    between atoms: _462  and  _464
REMARK  194  A    between atoms: _464  and  _465
REMARK  195  A    between atoms: _464  and  _467
REMARK  196  A    between atoms: _467  and  _468
REMARK  197  A    between atoms: _471  and  _473
REMARK  198  A    between atoms: _473  and  _474
REMARK  199  A    between atoms: _473  and  _476
REMARK  200  A    between atoms: _476  and  _477
REMARK  201  A    between atoms: _480  and  _482
REMARK  202  A    between atoms: _482  and  _483
REMARK  203  A    between atoms: _482  and  _485
REMARK  204  A    between atoms: _485  and  _486
REMARK  205  A    between atoms: _490  and  _491
REMARK  206  A    between atoms: _496  and  _498
REMARK  207  A    between atoms: _498  and  _499
REMARK  208  A    between atoms: _498  and  _501
REMARK  209  A    between atoms: _504  and  _506
REMARK  210  A    between atoms: _506  and  _507
REMARK  211  A    between atoms: _506  and  _509
REMARK  212  A    between atoms: _509  and  _510
REMARK  213  A    between atoms: _515  and  _517
REMARK  214  A    between atoms: _517  and  _518
REMARK  215  A    between atoms: _517  and  _520
REMARK  216  A    between atoms: _520  and  _521
REMARK  217  A    between atoms: _524  and  _526
REMARK  218  A    between atoms: _526  and  _527
REMARK  219  A    between atoms: _526  and  _529
REMARK  220  A    between atoms: _529  and  _530
REMARK  221  A    between atoms: _533  and  _535
REMARK  222  A    between atoms: _535  and  _536
REMARK  223  A    between atoms: _538  and  _540
REMARK  224  A    between atoms: _540  and  _541
REMARK  225  A    between atoms: _540  and  _543
REMARK  226  A    between atoms: _543  and  _544
REMARK  227  A    between atoms: _544  and  _545
REMARK  228  A    between atoms: _545  and  _546
REMARK  229  A    between atoms: _555  and  _557
REMARK  230  A    between atoms: _557  and  _558
REMARK  231  A    between atoms: _557  and  _560
REMARK  232  A    between atoms: _560  and  _561
REMARK                            x       y       z     vdW  Elec       q    Type
REMARK                         _______ _______ _______ _____ _____    ______ ____
ROOT
ATOM      1  O   HOH     1      23.125  28.259  26.196  0.00  0.00    +0.000 OA
ENDROOT
TORSDOF 0
