REMARK  Name = ../refined-set-2016/1z6s/1z6s_pocket.pdb
REMARK  116 active torsions:
REMARK  status: ('A' for Active; 'I' for Inactive)
REMARK    1  A    between atoms: _1  and  _3
REMARK    2  A    between atoms: _3  and  _4
REMARK    3  A    between atoms: _7  and  _9
REMARK    4  A    between atoms: _9  and  _10
REMARK    5  A    between atoms: _9  and  _12
REMARK    6  A    between atoms: _12  and  _13
REMARK    7  A    between atoms: _13  and  _14
REMARK    8  A    between atoms: _14  and  _15
REMARK    9  A    between atoms: _15  and  _16
REMARK   10  A    between atoms: _20  and  _22
REMARK   11  A    between atoms: _22  and  _23
REMARK   12  A    between atoms: _22  and  _25
REMARK   13  A    between atoms: _25  and  _26
REMARK   14  A    between atoms: _32  and  _34
REMARK   15  A    between atoms: _34  and  _35
REMARK   16  A    between atoms: _34  and  _37
REMARK   17  A    between atoms: _37  and  _38
REMARK   18  A    between atoms: _38  and  _39
REMARK   19  A    between atoms: _39  and  _40
REMARK   20  A    between atoms: _49  and  _51
REMARK   21  A    between atoms: _51  and  _52
REMARK   22  A    between atoms: _51  and  _54
REMARK   23  A    between atoms: _54  and  _55
REMARK   24  A    between atoms: _55  and  _56
REMARK   25  A    between atoms: _61  and  _63
REMARK   26  A    between atoms: _63  and  _64
REMARK   27  A    between atoms: _63  and  _66
REMARK   28  A    between atoms: _66  and  _67
REMARK   29  A    between atoms: _72  and  _74
REMARK   30  A    between atoms: _74  and  _75
REMARK   31  A    between atoms: _74  and  _77
REMARK   32  A    between atoms: _77  and  _78
REMARK   33  A    between atoms: _81  and  _83
REMARK   34  A    between atoms: _83  and  _84
REMARK   35  A    between atoms: _83  and  _86
REMARK   36  A    between atoms: _86  and  _87
REMARK   37  A    between atoms: _87  and  _88
REMARK   38  A    between atoms: _88  and  _89
REMARK   39  A    between atoms: _98  and  _100
REMARK   40  A    between atoms: _100  and  _101
REMARK   41  A    between atoms: _100  and  _103
REMARK   42  A    between atoms: _103  and  _104
REMARK   43  A    between atoms: _104  and  _105
REMARK   44  A    between atoms: _105  and  _106
REMARK   45  A    between atoms: _106  and  _107
REMARK   46  A    between atoms: _111  and  _113
REMARK   47  A    between atoms: _113  and  _114
REMARK   48  A    between atoms: _113  and  _116
REMARK   49  A    between atoms: _119  and  _121
REMARK   50  A    between atoms: _121  and  _122
REMARK   51  A    between atoms: _121  and  _124
REMARK   52  A    between atoms: _124  and  _125
REMARK   53  A    between atoms: _130  and  _132
REMARK   54  A    between atoms: _132  and  _133
REMARK   55  A    between atoms: _132  and  _135
REMARK   56  A    between atoms: _135  and  _136
REMARK   57  A    between atoms: _139  and  _141
REMARK   58  A    between atoms: _141  and  _142
REMARK   59  A    between atoms: _141  and  _144
REMARK   60  A    between atoms: _147  and  _149
REMARK   61  A    between atoms: _149  and  _150
REMARK   62  A    between atoms: _153  and  _155
REMARK   63  A    between atoms: _162  and  _165
REMARK   64  A    between atoms: _165  and  _166
REMARK   65  A    between atoms: _166  and  _167
REMARK   66  A    between atoms: _167  and  _168
REMARK   67  A    between atoms: _168  and  _169
REMARK   68  A    between atoms: _175  and  _178
REMARK   69  A    between atoms: _178  and  _179
REMARK   70  A    between atoms: _191  and  _194
REMARK   71  A    between atoms: _194  and  _195
REMARK   72  A    between atoms: _195  and  _196
REMARK   73  A    between atoms: _203  and  _206
REMARK   74  A    between atoms: _206  and  _207
REMARK   75  A    between atoms: _212  and  _215
REMARK   76  A    between atoms: _215  and  _216
REMARK   77  A    between atoms: _223  and  _224
REMARK   78  A    between atoms: _228  and  _230
REMARK   79  A    between atoms: _230  and  _231
REMARK   80  A    between atoms: _230  and  _233
REMARK   81  A    between atoms: _233  and  _234
REMARK   82  A    between atoms: _239  and  _240
REMARK   83  A    between atoms: _242  and  _244
REMARK   84  A    between atoms: _244  and  _245
REMARK   85  A    between atoms: _244  and  _247
REMARK   86  A    between atoms: _250  and  _252
REMARK   87  A    between atoms: _252  and  _253
REMARK   88  A    between atoms: _256  and  _258
REMARK   89  A    between atoms: _258  and  _259
REMARK   90  A    between atoms: _258  and  _261
REMARK   91  A    between atoms: _263  and  _265
REMARK   92  A    between atoms: _265  and  _266
REMARK   93  A    between atoms: _265  and  _268
REMARK   94  A    between atoms: _268  and  _269
REMARK   95  A    between atoms: _269  and  _270
REMARK   96  A    between atoms: _273  and  _275
REMARK   97  A    between atoms: _275  and  _276
REMARK   98  A    between atoms: _275  and  _278
REMARK   99  A    between atoms: _282  and  _283
REMARK  100  A    between atoms: _288  and  _290
REMARK  101  A    between atoms: _290  and  _291
REMARK  102  A    between atoms: _290  and  _293
REMARK  103  A    between atoms: _296  and  _298
REMARK  104  A    between atoms: _298  and  _299
REMARK  105  A    between atoms: _298  and  _301
REMARK  106  A    between atoms: _301  and  _302
REMARK  107  A    between atoms: _307  and  _309
REMARK  108  A    between atoms: _309  and  _310
REMARK  109  A    between atoms: _309  and  _312
REMARK  110  A    between atoms: _312  and  _313
REMARK  111  A    between atoms: _319  and  _321
REMARK  112  A    between atoms: _321  and  _322
REMARK  113  A    between atoms: _321  and  _324
REMARK  114  A    between atoms: _324  and  _325
REMARK  115  A    between atoms: _328  and  _330
REMARK  116  A    between atoms: _330  and  _331
REMARK                            x       y       z     vdW  Elec       q    Type
REMARK                         _______ _______ _______ _____ _____    ______ ____
ROOT
ATOM      1  CA  ALA A   1      33.491  12.094  15.149  0.00  0.00    +0.133 C 
ATOM      2  CB  ALA A   1      33.805  11.777  16.608  0.00  0.00    +0.027 C 
ENDROOT
BRANCH   1   3
ATOM      3  N   ALA A   1      33.379  13.542  14.965  0.00  0.00    -0.239 NA
ATOM      4  H   ALA A   1      33.472  14.165  15.793  0.00  0.00    +0.142 HD
ENDBRANCH   1   3
BRANCH   1   5
ATOM      5  C   ALA A   1      32.212  11.379  14.701  0.00  0.00    +0.224 C 
ATOM      6  O   ALA A   1      32.267  10.314  14.082  0.00  0.00    -0.287 OA
ENDBRANCH   1   5
TORSDOF 2
REMARK  Name = ../refined-set-2016/1z6s/1z6s_pocket.pdb
REMARK  116 active torsions:
REMARK  status: ('A' for Active; 'I' for Inactive)
REMARK    1  A    between atoms: _1  and  _3
REMARK    2  A    between atoms: _3  and  _4
REMARK    3  A    between atoms: _7  and  _9
REMARK    4  A    between atoms: _9  and  _10
REMARK    5  A    between atoms: _9  and  _12
REMARK    6  A    between atoms: _12  and  _13
REMARK    7  A    between atoms: _13  and  _14
REMARK    8  A    between atoms: _14  and  _15
REMARK    9  A    between atoms: _15  and  _16
REMARK   10  A    between atoms: _20  and  _22
REMARK   11  A    between atoms: _22  and  _23
REMARK   12  A    between atoms: _22  and  _25
REMARK   13  A    between atoms: _25  and  _26
REMARK   14  A    between atoms: _32  and  _34
REMARK   15  A    between atoms: _34  and  _35
REMARK   16  A    between atoms: _34  and  _37
REMARK   17  A    between atoms: _37  and  _38
REMARK   18  A    between atoms: _38  and  _39
REMARK   19  A    between atoms: _39  and  _40
REMARK   20  A    between atoms: _49  and  _51
REMARK   21  A    between atoms: _51  and  _52
REMARK   22  A    between atoms: _51  and  _54
REMARK   23  A    between atoms: _54  and  _55
REMARK   24  A    between atoms: _55  and  _56
REMARK   25  A    between atoms: _61  and  _63
REMARK   26  A    between atoms: _63  and  _64
REMARK   27  A    between atoms: _63  and  _66
REMARK   28  A    between atoms: _66  and  _67
REMARK   29  A    between atoms: _72  and  _74
REMARK   30  A    between atoms: _74  and  _75
REMARK   31  A    between atoms: _74  and  _77
REMARK   32  A    between atoms: _77  and  _78
REMARK   33  A    between atoms: _81  and  _83
REMARK   34  A    between atoms: _83  and  _84
REMARK   35  A    between atoms: _83  and  _86
REMARK   36  A    between atoms: _86  and  _87
REMARK   37  A    between atoms: _87  and  _88
REMARK   38  A    between atoms: _88  and  _89
REMARK   39  A    between atoms: _98  and  _100
REMARK   40  A    between atoms: _100  and  _101
REMARK   41  A    between atoms: _100  and  _103
REMARK   42  A    between atoms: _103  and  _104
REMARK   43  A    between atoms: _104  and  _105
REMARK   44  A    between atoms: _105  and  _106
REMARK   45  A    between atoms: _106  and  _107
REMARK   46  A    between atoms: _111  and  _113
REMARK   47  A    between atoms: _113  and  _114
REMARK   48  A    between atoms: _113  and  _116
REMARK   49  A    between atoms: _119  and  _121
REMARK   50  A    between atoms: _121  and  _122
REMARK   51  A    between atoms: _121  and  _124
REMARK   52  A    between atoms: _124  and  _125
REMARK   53  A    between atoms: _130  and  _132
REMARK   54  A    between atoms: _132  and  _133
REMARK   55  A    between atoms: _132  and  _135
REMARK   56  A    between atoms: _135  and  _136
REMARK   57  A    between atoms: _139  and  _141
REMARK   58  A    between atoms: _141  and  _142
REMARK   59  A    between atoms: _141  and  _144
REMARK   60  A    between atoms: _147  and  _149
REMARK   61  A    between atoms: _149  and  _150
REMARK   62  A    between atoms: _153  and  _155
REMARK   63  A    between atoms: _162  and  _165
REMARK   64  A    between atoms: _165  and  _166
REMARK   65  A    between atoms: _166  and  _167
REMARK   66  A    between atoms: _167  and  _168
REMARK   67  A    between atoms: _168  and  _169
REMARK   68  A    between atoms: _175  and  _178
REMARK   69  A    between atoms: _178  and  _179
REMARK   70  A    between atoms: _191  and  _194
REMARK   71  A    between atoms: _194  and  _195
REMARK   72  A    between atoms: _195  and  _196
REMARK   73  A    between atoms: _203  and  _206
REMARK   74  A    between atoms: _206  and  _207
REMARK   75  A    between atoms: _212  and  _215
REMARK   76  A    between atoms: _215  and  _216
REMARK   77  A    between atoms: _223  and  _224
REMARK   78  A    between atoms: _228  and  _230
REMARK   79  A    between atoms: _230  and  _231
REMARK   80  A    between atoms: _230  and  _233
REMARK   81  A    between atoms: _233  and  _234
REMARK   82  A    between atoms: _239  and  _240
REMARK   83  A    between atoms: _242  and  _244
REMARK   84  A    between atoms: _244  and  _245
REMARK   85  A    between atoms: _244  and  _247
REMARK   86  A    between atoms: _250  and  _252
REMARK   87  A    between atoms: _252  and  _253
REMARK   88  A    between atoms: _256  and  _258
REMARK   89  A    between atoms: _258  and  _259
REMARK   90  A    between atoms: _258  and  _261
REMARK   91  A    between atoms: _263  and  _265
REMARK   92  A    between atoms: _265  and  _266
REMARK   93  A    between atoms: _265  and  _268
REMARK   94  A    between atoms: _268  and  _269
REMARK   95  A    between atoms: _269  and  _270
REMARK   96  A    between atoms: _273  and  _275
REMARK   97  A    between atoms: _275  and  _276
REMARK   98  A    between atoms: _275  and  _278
REMARK   99  A    between atoms: _282  and  _283
REMARK  100  A    between atoms: _288  and  _290
REMARK  101  A    between atoms: _290  and  _291
REMARK  102  A    between atoms: _290  and  _293
REMARK  103  A    between atoms: _296  and  _298
REMARK  104  A    between atoms: _298  and  _299
REMARK  105  A    between atoms: _298  and  _301
REMARK  106  A    between atoms: _301  and  _302
REMARK  107  A    between atoms: _307  and  _309
REMARK  108  A    between atoms: _309  and  _310
REMARK  109  A    between atoms: _309  and  _312
REMARK  110  A    between atoms: _312  and  _313
REMARK  111  A    between atoms: _319  and  _321
REMARK  112  A    between atoms: _321  and  _322
REMARK  113  A    between atoms: _321  and  _324
REMARK  114  A    between atoms: _324  and  _325
REMARK  115  A    between atoms: _328  and  _330
REMARK  116  A    between atoms: _330  and  _331
REMARK                            x       y       z     vdW  Elec       q    Type
REMARK                         _______ _______ _______ _____ _____    ______ ____
ROOT
ATOM      1  C   LYS A   1      32.686   8.996  10.603  0.00  0.00    +0.238 C 
ATOM      2  N   PHE A   2      31.946   8.710  11.669  0.00  0.00    -0.298 N 
ATOM      3  H   PHE A   2      31.823   9.417  12.422  0.00  0.00    +0.150 HD
ATOM      4  O   LYS A   1      32.876   8.186   9.696  0.00  0.00    -0.274 OA
ENDROOT
BRANCH   1   5
ATOM      5  CA  LYS A   1      33.269  10.412  10.523  0.00  0.00    +0.145 C 
BRANCH   5   6
ATOM      6  N   LYS A   1      32.301  11.410  10.955  0.00  0.00    -0.238 NA
ATOM      7  H   LYS A   1      32.522  12.032  11.759  0.00  0.00    +0.142 HD
ENDBRANCH   5   6
BRANCH   5   8
ATOM      8  CB  LYS A   1      34.565  10.534  11.327  0.00  0.00    +0.026 C 
BRANCH   8   9
ATOM      9  CG  LYS A   1      35.666   9.615  10.853  0.00  0.00    -0.000 C 
BRANCH   9  10
ATOM     10  CD  LYS A   1      36.935   9.897  11.611  0.00  0.00    -0.024 C 
BRANCH  10  11
ATOM     11  CE  LYS A   1      38.028   8.938  11.212  0.00  0.00    -0.086 C 
BRANCH  11  12
ATOM     12  NZ  LYS A   1      39.275   9.262  11.970  0.00  0.00    +0.380 N 
ATOM     13  HZ1 LYS A   1      39.092   9.175  12.990  0.00  0.00    -0.089 HD
ATOM     14  HZ2 LYS A   1      39.569  10.235  11.751  0.00  0.00    -0.089 HD
ATOM     15  HZ3 LYS A   1      40.029   8.600  11.694  0.00  0.00    -0.089 HD
ENDBRANCH  11  12
ENDBRANCH  10  11
ENDBRANCH   9  10
ENDBRANCH   8   9
ENDBRANCH   5   8
ENDBRANCH   1   5
BRANCH   2  16
ATOM     16  CA  PHE A   2      31.303   7.398  11.784  0.00  0.00    +0.141 C 
BRANCH  16  17
ATOM     17  C   PHE A   2      30.317   7.183  10.622  0.00  0.00    +0.227 C 
ATOM     18  O   PHE A   2      30.259   6.105  10.022  0.00  0.00    -0.286 OA
ENDBRANCH  16  17
BRANCH  16  19
ATOM     19  CB  PHE A   2      30.602   7.250  13.152  0.00  0.00    +0.054 C 
BRANCH  19  20
ATOM     20  CG  PHE A   2      29.834   5.964  13.283  0.00  0.00    -0.020 A 
ATOM     21  CD2 PHE A   2      30.430   4.835  13.841  0.00  0.00    -0.004 A 
ATOM     22  CE2 PHE A   2      29.735   3.640  13.938  0.00  0.00    -0.000 A 
ATOM     23  CZ  PHE A   2      28.427   3.555  13.461  0.00  0.00    -0.000 A 
ATOM     24  CE1 PHE A   2      27.827   4.687  12.897  0.00  0.00    -0.000 A 
ATOM     25  CD1 PHE A   2      28.524   5.881  12.818  0.00  0.00    -0.004 A 
ENDBRANCH  19  20
ENDBRANCH  16  19
ENDBRANCH   2  16
TORSDOF 11
REMARK  Name = ../refined-set-2016/1z6s/1z6s_pocket.pdb
REMARK  116 active torsions:
REMARK  status: ('A' for Active; 'I' for Inactive)
REMARK    1  A    between atoms: _1  and  _3
REMARK    2  A    between atoms: _3  and  _4
REMARK    3  A    between atoms: _7  and  _9
REMARK    4  A    between atoms: _9  and  _10
REMARK    5  A    between atoms: _9  and  _12
REMARK    6  A    between atoms: _12  and  _13
REMARK    7  A    between atoms: _13  and  _14
REMARK    8  A    between atoms: _14  and  _15
REMARK    9  A    between atoms: _15  and  _16
REMARK   10  A    between atoms: _20  and  _22
REMARK   11  A    between atoms: _22  and  _23
REMARK   12  A    between atoms: _22  and  _25
REMARK   13  A    between atoms: _25  and  _26
REMARK   14  A    between atoms: _32  and  _34
REMARK   15  A    between atoms: _34  and  _35
REMARK   16  A    between atoms: _34  and  _37
REMARK   17  A    between atoms: _37  and  _38
REMARK   18  A    between atoms: _38  and  _39
REMARK   19  A    between atoms: _39  and  _40
REMARK   20  A    between atoms: _49  and  _51
REMARK   21  A    between atoms: _51  and  _52
REMARK   22  A    between atoms: _51  and  _54
REMARK   23  A    between atoms: _54  and  _55
REMARK   24  A    between atoms: _55  and  _56
REMARK   25  A    between atoms: _61  and  _63
REMARK   26  A    between atoms: _63  and  _64
REMARK   27  A    between atoms: _63  and  _66
REMARK   28  A    between atoms: _66  and  _67
REMARK   29  A    between atoms: _72  and  _74
REMARK   30  A    between atoms: _74  and  _75
REMARK   31  A    between atoms: _74  and  _77
REMARK   32  A    between atoms: _77  and  _78
REMARK   33  A    between atoms: _81  and  _83
REMARK   34  A    between atoms: _83  and  _84
REMARK   35  A    between atoms: _83  and  _86
REMARK   36  A    between atoms: _86  and  _87
REMARK   37  A    between atoms: _87  and  _88
REMARK   38  A    between atoms: _88  and  _89
REMARK   39  A    between atoms: _98  and  _100
REMARK   40  A    between atoms: _100  and  _101
REMARK   41  A    between atoms: _100  and  _103
REMARK   42  A    between atoms: _103  and  _104
REMARK   43  A    between atoms: _104  and  _105
REMARK   44  A    between atoms: _105  and  _106
REMARK   45  A    between atoms: _106  and  _107
REMARK   46  A    between atoms: _111  and  _113
REMARK   47  A    between atoms: _113  and  _114
REMARK   48  A    between atoms: _113  and  _116
REMARK   49  A    between atoms: _119  and  _121
REMARK   50  A    between atoms: _121  and  _122
REMARK   51  A    between atoms: _121  and  _124
REMARK   52  A    between atoms: _124  and  _125
REMARK   53  A    between atoms: _130  and  _132
REMARK   54  A    between atoms: _132  and  _133
REMARK   55  A    between atoms: _132  and  _135
REMARK   56  A    between atoms: _135  and  _136
REMARK   57  A    between atoms: _139  and  _141
REMARK   58  A    between atoms: _141  and  _142
REMARK   59  A    between atoms: _141  and  _144
REMARK   60  A    between atoms: _147  and  _149
REMARK   61  A    between atoms: _149  and  _150
REMARK   62  A    between atoms: _153  and  _155
REMARK   63  A    between atoms: _162  and  _165
REMARK   64  A    between atoms: _165  and  _166
REMARK   65  A    between atoms: _166  and  _167
REMARK   66  A    between atoms: _167  and  _168
REMARK   67  A    between atoms: _168  and  _169
REMARK   68  A    between atoms: _175  and  _178
REMARK   69  A    between atoms: _178  and  _179
REMARK   70  A    between atoms: _191  and  _194
REMARK   71  A    between atoms: _194  and  _195
REMARK   72  A    between atoms: _195  and  _196
REMARK   73  A    between atoms: _203  and  _206
REMARK   74  A    between atoms: _206  and  _207
REMARK   75  A    between atoms: _212  and  _215
REMARK   76  A    between atoms: _215  and  _216
REMARK   77  A    between atoms: _223  and  _224
REMARK   78  A    between atoms: _228  and  _230
REMARK   79  A    between atoms: _230  and  _231
REMARK   80  A    between atoms: _230  and  _233
REMARK   81  A    between atoms: _233  and  _234
REMARK   82  A    between atoms: _239  and  _240
REMARK   83  A    between atoms: _242  and  _244
REMARK   84  A    between atoms: _244  and  _245
REMARK   85  A    between atoms: _244  and  _247
REMARK   86  A    between atoms: _250  and  _252
REMARK   87  A    between atoms: _252  and  _253
REMARK   88  A    between atoms: _256  and  _258
REMARK   89  A    between atoms: _258  and  _259
REMARK   90  A    between atoms: _258  and  _261
REMARK   91  A    between atoms: _263  and  _265
REMARK   92  A    between atoms: _265  and  _266
REMARK   93  A    between atoms: _265  and  _268
REMARK   94  A    between atoms: _268  and  _269
REMARK   95  A    between atoms: _269  and  _270
REMARK   96  A    between atoms: _273  and  _275
REMARK   97  A    between atoms: _275  and  _276
REMARK   98  A    between atoms: _275  and  _278
REMARK   99  A    between atoms: _282  and  _283
REMARK  100  A    between atoms: _288  and  _290
REMARK  101  A    between atoms: _290  and  _291
REMARK  102  A    between atoms: _290  and  _293
REMARK  103  A    between atoms: _296  and  _298
REMARK  104  A    between atoms: _298  and  _299
REMARK  105  A    between atoms: _298  and  _301
REMARK  106  A    between atoms: _301  and  _302
REMARK  107  A    between atoms: _307  and  _309
REMARK  108  A    between atoms: _309  and  _310
REMARK  109  A    between atoms: _309  and  _312
REMARK  110  A    between atoms: _312  and  _313
REMARK  111  A    between atoms: _319  and  _321
REMARK  112  A    between atoms: _321  and  _322
REMARK  113  A    between atoms: _321  and  _324
REMARK  114  A    between atoms: _324  and  _325
REMARK  115  A    between atoms: _328  and  _330
REMARK  116  A    between atoms: _330  and  _331
REMARK                            x       y       z     vdW  Elec       q    Type
REMARK                         _______ _______ _______ _____ _____    ______ ____
ROOT
ATOM      1  CA  GLN A   2      33.079   5.302   7.412  0.00  0.00    +0.149 C 
ENDROOT
BRANCH   1   3
ATOM      2  C   ARG A   1      31.769   7.011   6.327  0.00  0.00    +0.238 C 
ATOM      3  N   GLN A   2      32.337   6.561   7.438  0.00  0.00    -0.297 N 
ATOM      4  H   GLN A   2      32.255   7.101   8.323  0.00  0.00    +0.150 HD
ATOM      5  O   ARG A   1      31.759   6.360   5.275  0.00  0.00    -0.274 OA
BRANCH   2   6
ATOM      6  CA  ARG A   1      31.189   8.413   6.402  0.00  0.00    +0.145 C 
BRANCH   6   7
ATOM      7  N   ARG A   1      30.424   8.571   7.638  0.00  0.00    -0.238 NA
ATOM      8  H   ARG A   1      30.739   9.259   8.351  0.00  0.00    +0.142 HD
ENDBRANCH   6   7
BRANCH   6   9
ATOM      9  CB  ARG A   1      32.332   9.431   6.326  0.00  0.00    +0.030 C 
BRANCH   9  10
ATOM     10  CG  ARG A   1      33.220   9.252   5.097  0.00  0.00    +0.045 C 
BRANCH  10  11
ATOM     11  CD  ARG A   1      34.117  10.441   4.933  0.00  0.00    +0.174 C 
BRANCH  11  12
ATOM     12  NE  ARG A   1      34.936  10.718   6.104  0.00  0.00    -0.265 N 
ATOM     13  HE  ARG A   1      34.598  11.449   6.762  0.00  0.00    +0.259 HD
ATOM     14  CZ  ARG A   1      36.081  10.112   6.401  0.00  0.00    +0.342 C 
ATOM     15  NH2 ARG A   1      36.735  10.470   7.506  0.00  0.00    -0.292 N 
ATOM     16 HH21 ARG A   1      36.348  11.214   8.121  0.00  0.00    +0.255 HD
ATOM     17 HH22 ARG A   1      37.632  10.006   7.753  0.00  0.00    +0.255 HD
ATOM     18  NH1 ARG A   1      36.561   9.147   5.616  0.00  0.00    -0.292 N 
ATOM     19 HH11 ARG A   1      37.458   8.679   5.857  0.00  0.00    +0.255 HD
ATOM     20 HH12 ARG A   1      36.039   8.863   4.763  0.00  0.00    +0.255 HD
ENDBRANCH  11  12
ENDBRANCH  10  11
ENDBRANCH   9  10
ENDBRANCH   6   9
ENDBRANCH   2   6
ENDBRANCH   1   3
BRANCH   1  21
ATOM     21  C   GLN A   2      32.179   4.079   7.494  0.00  0.00    +0.241 C 
ATOM     22  N   HIS A   3      30.976   4.214   8.070  0.00  0.00    -0.298 N 
ATOM     23  H   HIS A   3      30.575   5.161   8.226  0.00  0.00    +0.150 HD
ATOM     24  O   GLN A   2      32.569   3.026   7.038  0.00  0.00    -0.273 OA
BRANCH  22  25
ATOM     25  CA  HIS A   3      30.224   3.017   8.481  0.00  0.00    +0.143 C 
BRANCH  25  26
ATOM     26  C   HIS A   3      28.773   2.925   8.093  0.00  0.00    +0.227 C 
ATOM     27  O   HIS A   3      28.182   1.865   8.279  0.00  0.00    -0.286 OA
ENDBRANCH  25  26
BRANCH  25  28
ATOM     28  CB  HIS A   3      30.322   2.802   9.992  0.00  0.00    +0.075 C 
BRANCH  28  29
ATOM     29  CG  HIS A   3      31.717   2.606  10.453  0.00  0.00    +0.082 A 
ATOM     30  CD2 HIS A   3      32.496   3.337  11.276  0.00  0.00    +0.115 A 
ATOM     31  NE2 HIS A   3      33.716   2.716  11.329  0.00  0.00    -0.221 NA
ATOM     32  CE1 HIS A   3      33.670   1.611  10.606  0.00  0.00    +0.199 A 
ATOM     33  ND1 HIS A   3      32.471   1.524  10.064  0.00  0.00    -0.227 NA
ENDBRANCH  28  29
ENDBRANCH  25  28
ENDBRANCH  22  25
ENDBRANCH   1  21
BRANCH   1  34
ATOM     34  CB  GLN A   2      34.125   5.231   8.525  0.00  0.00    +0.039 C 
BRANCH  34  35
ATOM     35  CG  GLN A   2      35.143   6.347   8.487  0.00  0.00    +0.087 C 
BRANCH  35  36
ATOM     36  CD  GLN A   2      36.350   6.093   9.397  0.00  0.00    +0.219 C 
ATOM     37  NE2 GLN A   2      36.093   5.610  10.600  0.00  0.00    -0.329 N 
ATOM     38 HE21 GLN A   2      36.872   5.430  11.265  0.00  0.00    +0.145 HD
ATOM     39 HE22 GLN A   2      35.112   5.410  10.881  0.00  0.00    +0.145 HD
ATOM     40  OE1 GLN A   2      37.506   6.350   9.009  0.00  0.00    -0.275 OA
ENDBRANCH  35  36
ENDBRANCH  34  35
ENDBRANCH   1  34
TORSDOF 15
REMARK  Name = ../refined-set-2016/1z6s/1z6s_pocket.pdb
REMARK  116 active torsions:
REMARK  status: ('A' for Active; 'I' for Inactive)
REMARK    1  A    between atoms: _1  and  _3
REMARK    2  A    between atoms: _3  and  _4
REMARK    3  A    between atoms: _7  and  _9
REMARK    4  A    between atoms: _9  and  _10
REMARK    5  A    between atoms: _9  and  _12
REMARK    6  A    between atoms: _12  and  _13
REMARK    7  A    between atoms: _13  and  _14
REMARK    8  A    between atoms: _14  and  _15
REMARK    9  A    between atoms: _15  and  _16
REMARK   10  A    between atoms: _20  and  _22
REMARK   11  A    between atoms: _22  and  _23
REMARK   12  A    between atoms: _22  and  _25
REMARK   13  A    between atoms: _25  and  _26
REMARK   14  A    between atoms: _32  and  _34
REMARK   15  A    between atoms: _34  and  _35
REMARK   16  A    between atoms: _34  and  _37
REMARK   17  A    between atoms: _37  and  _38
REMARK   18  A    between atoms: _38  and  _39
REMARK   19  A    between atoms: _39  and  _40
REMARK   20  A    between atoms: _49  and  _51
REMARK   21  A    between atoms: _51  and  _52
REMARK   22  A    between atoms: _51  and  _54
REMARK   23  A    between atoms: _54  and  _55
REMARK   24  A    between atoms: _55  and  _56
REMARK   25  A    between atoms: _61  and  _63
REMARK   26  A    between atoms: _63  and  _64
REMARK   27  A    between atoms: _63  and  _66
REMARK   28  A    between atoms: _66  and  _67
REMARK   29  A    between atoms: _72  and  _74
REMARK   30  A    between atoms: _74  and  _75
REMARK   31  A    between atoms: _74  and  _77
REMARK   32  A    between atoms: _77  and  _78
REMARK   33  A    between atoms: _81  and  _83
REMARK   34  A    between atoms: _83  and  _84
REMARK   35  A    between atoms: _83  and  _86
REMARK   36  A    between atoms: _86  and  _87
REMARK   37  A    between atoms: _87  and  _88
REMARK   38  A    between atoms: _88  and  _89
REMARK   39  A    between atoms: _98  and  _100
REMARK   40  A    between atoms: _100  and  _101
REMARK   41  A    between atoms: _100  and  _103
REMARK   42  A    between atoms: _103  and  _104
REMARK   43  A    between atoms: _104  and  _105
REMARK   44  A    between atoms: _105  and  _106
REMARK   45  A    between atoms: _106  and  _107
REMARK   46  A    between atoms: _111  and  _113
REMARK   47  A    between atoms: _113  and  _114
REMARK   48  A    between atoms: _113  and  _116
REMARK   49  A    between atoms: _119  and  _121
REMARK   50  A    between atoms: _121  and  _122
REMARK   51  A    between atoms: _121  and  _124
REMARK   52  A    between atoms: _124  and  _125
REMARK   53  A    between atoms: _130  and  _132
REMARK   54  A    between atoms: _132  and  _133
REMARK   55  A    between atoms: _132  and  _135
REMARK   56  A    between atoms: _135  and  _136
REMARK   57  A    between atoms: _139  and  _141
REMARK   58  A    between atoms: _141  and  _142
REMARK   59  A    between atoms: _141  and  _144
REMARK   60  A    between atoms: _147  and  _149
REMARK   61  A    between atoms: _149  and  _150
REMARK   62  A    between atoms: _153  and  _155
REMARK   63  A    between atoms: _162  and  _165
REMARK   64  A    between atoms: _165  and  _166
REMARK   65  A    between atoms: _166  and  _167
REMARK   66  A    between atoms: _167  and  _168
REMARK   67  A    between atoms: _168  and  _169
REMARK   68  A    between atoms: _175  and  _178
REMARK   69  A    between atoms: _178  and  _179
REMARK   70  A    between atoms: _191  and  _194
REMARK   71  A    between atoms: _194  and  _195
REMARK   72  A    between atoms: _195  and  _196
REMARK   73  A    between atoms: _203  and  _206
REMARK   74  A    between atoms: _206  and  _207
REMARK   75  A    between atoms: _212  and  _215
REMARK   76  A    between atoms: _215  and  _216
REMARK   77  A    between atoms: _223  and  _224
REMARK   78  A    between atoms: _228  and  _230
REMARK   79  A    between atoms: _230  and  _231
REMARK   80  A    between atoms: _230  and  _233
REMARK   81  A    between atoms: _233  and  _234
REMARK   82  A    between atoms: _239  and  _240
REMARK   83  A    between atoms: _242  and  _244
REMARK   84  A    between atoms: _244  and  _245
REMARK   85  A    between atoms: _244  and  _247
REMARK   86  A    between atoms: _250  and  _252
REMARK   87  A    between atoms: _252  and  _253
REMARK   88  A    between atoms: _256  and  _258
REMARK   89  A    between atoms: _258  and  _259
REMARK   90  A    between atoms: _258  and  _261
REMARK   91  A    between atoms: _263  and  _265
REMARK   92  A    between atoms: _265  and  _266
REMARK   93  A    between atoms: _265  and  _268
REMARK   94  A    between atoms: _268  and  _269
REMARK   95  A    between atoms: _269  and  _270
REMARK   96  A    between atoms: _273  and  _275
REMARK   97  A    between atoms: _275  and  _276
REMARK   98  A    between atoms: _275  and  _278
REMARK   99  A    between atoms: _282  and  _283
REMARK  100  A    between atoms: _288  and  _290
REMARK  101  A    between atoms: _290  and  _291
REMARK  102  A    between atoms: _290  and  _293
REMARK  103  A    between atoms: _296  and  _298
REMARK  104  A    between atoms: _298  and  _299
REMARK  105  A    between atoms: _298  and  _301
REMARK  106  A    between atoms: _301  and  _302
REMARK  107  A    between atoms: _307  and  _309
REMARK  108  A    between atoms: _309  and  _310
REMARK  109  A    between atoms: _309  and  _312
REMARK  110  A    between atoms: _312  and  _313
REMARK  111  A    between atoms: _319  and  _321
REMARK  112  A    between atoms: _321  and  _322
REMARK  113  A    between atoms: _321  and  _324
REMARK  114  A    between atoms: _324  and  _325
REMARK  115  A    between atoms: _328  and  _330
REMARK  116  A    between atoms: _330  and  _331
REMARK                            x       y       z     vdW  Elec       q    Type
REMARK                         _______ _______ _______ _____ _____    ______ ____
ROOT
ATOM      1  CA  LEU A   1      39.210   5.035   3.304  0.00  0.00    +0.133 C 
ENDROOT
BRANCH   1   2
ATOM      2  N   LEU A   1      38.501   5.932   2.390  0.00  0.00    -0.239 NA
ATOM      3  H   LEU A   1      37.836   5.528   1.699  0.00  0.00    +0.142 HD
ENDBRANCH   1   2
BRANCH   1   4
ATOM      4  C   LEU A   1      40.427   4.395   2.638  0.00  0.00    +0.224 C 
ATOM      5  O   LEU A   1      41.055   3.505   3.213  0.00  0.00    -0.287 OA
ENDBRANCH   1   4
BRANCH   1   6
ATOM      6  CB  LEU A   1      38.270   3.954   3.846  0.00  0.00    +0.025 C 
BRANCH   6   7
ATOM      7  CG  LEU A   1      36.928   4.470   4.377  0.00  0.00    +0.002 C 
ATOM      8  CD2 LEU A   1      37.151   5.556   5.423  0.00  0.00    +0.000 C 
ATOM      9  CD1 LEU A   1      36.161   3.321   4.948  0.00  0.00    +0.000 C 
ENDBRANCH   6   7
ENDBRANCH   1   6
TORSDOF 4
REMARK  Name = ../refined-set-2016/1z6s/1z6s_pocket.pdb
REMARK  116 active torsions:
REMARK  status: ('A' for Active; 'I' for Inactive)
REMARK    1  A    between atoms: _1  and  _3
REMARK    2  A    between atoms: _3  and  _4
REMARK    3  A    between atoms: _7  and  _9
REMARK    4  A    between atoms: _9  and  _10
REMARK    5  A    between atoms: _9  and  _12
REMARK    6  A    between atoms: _12  and  _13
REMARK    7  A    between atoms: _13  and  _14
REMARK    8  A    between atoms: _14  and  _15
REMARK    9  A    between atoms: _15  and  _16
REMARK   10  A    between atoms: _20  and  _22
REMARK   11  A    between atoms: _22  and  _23
REMARK   12  A    between atoms: _22  and  _25
REMARK   13  A    between atoms: _25  and  _26
REMARK   14  A    between atoms: _32  and  _34
REMARK   15  A    between atoms: _34  and  _35
REMARK   16  A    between atoms: _34  and  _37
REMARK   17  A    between atoms: _37  and  _38
REMARK   18  A    between atoms: _38  and  _39
REMARK   19  A    between atoms: _39  and  _40
REMARK   20  A    between atoms: _49  and  _51
REMARK   21  A    between atoms: _51  and  _52
REMARK   22  A    between atoms: _51  and  _54
REMARK   23  A    between atoms: _54  and  _55
REMARK   24  A    between atoms: _55  and  _56
REMARK   25  A    between atoms: _61  and  _63
REMARK   26  A    between atoms: _63  and  _64
REMARK   27  A    between atoms: _63  and  _66
REMARK   28  A    between atoms: _66  and  _67
REMARK   29  A    between atoms: _72  and  _74
REMARK   30  A    between atoms: _74  and  _75
REMARK   31  A    between atoms: _74  and  _77
REMARK   32  A    between atoms: _77  and  _78
REMARK   33  A    between atoms: _81  and  _83
REMARK   34  A    between atoms: _83  and  _84
REMARK   35  A    between atoms: _83  and  _86
REMARK   36  A    between atoms: _86  and  _87
REMARK   37  A    between atoms: _87  and  _88
REMARK   38  A    between atoms: _88  and  _89
REMARK   39  A    between atoms: _98  and  _100
REMARK   40  A    between atoms: _100  and  _101
REMARK   41  A    between atoms: _100  and  _103
REMARK   42  A    between atoms: _103  and  _104
REMARK   43  A    between atoms: _104  and  _105
REMARK   44  A    between atoms: _105  and  _106
REMARK   45  A    between atoms: _106  and  _107
REMARK   46  A    between atoms: _111  and  _113
REMARK   47  A    between atoms: _113  and  _114
REMARK   48  A    between atoms: _113  and  _116
REMARK   49  A    between atoms: _119  and  _121
REMARK   50  A    between atoms: _121  and  _122
REMARK   51  A    between atoms: _121  and  _124
REMARK   52  A    between atoms: _124  and  _125
REMARK   53  A    between atoms: _130  and  _132
REMARK   54  A    between atoms: _132  and  _133
REMARK   55  A    between atoms: _132  and  _135
REMARK   56  A    between atoms: _135  and  _136
REMARK   57  A    between atoms: _139  and  _141
REMARK   58  A    between atoms: _141  and  _142
REMARK   59  A    between atoms: _141  and  _144
REMARK   60  A    between atoms: _147  and  _149
REMARK   61  A    between atoms: _149  and  _150
REMARK   62  A    between atoms: _153  and  _155
REMARK   63  A    between atoms: _162  and  _165
REMARK   64  A    between atoms: _165  and  _166
REMARK   65  A    between atoms: _166  and  _167
REMARK   66  A    between atoms: _167  and  _168
REMARK   67  A    between atoms: _168  and  _169
REMARK   68  A    between atoms: _175  and  _178
REMARK   69  A    between atoms: _178  and  _179
REMARK   70  A    between atoms: _191  and  _194
REMARK   71  A    between atoms: _194  and  _195
REMARK   72  A    between atoms: _195  and  _196
REMARK   73  A    between atoms: _203  and  _206
REMARK   74  A    between atoms: _206  and  _207
REMARK   75  A    between atoms: _212  and  _215
REMARK   76  A    between atoms: _215  and  _216
REMARK   77  A    between atoms: _223  and  _224
REMARK   78  A    between atoms: _228  and  _230
REMARK   79  A    between atoms: _230  and  _231
REMARK   80  A    between atoms: _230  and  _233
REMARK   81  A    between atoms: _233  and  _234
REMARK   82  A    between atoms: _239  and  _240
REMARK   83  A    between atoms: _242  and  _244
REMARK   84  A    between atoms: _244  and  _245
REMARK   85  A    between atoms: _244  and  _247
REMARK   86  A    between atoms: _250  and  _252
REMARK   87  A    between atoms: _252  and  _253
REMARK   88  A    between atoms: _256  and  _258
REMARK   89  A    between atoms: _258  and  _259
REMARK   90  A    between atoms: _258  and  _261
REMARK   91  A    between atoms: _263  and  _265
REMARK   92  A    between atoms: _265  and  _266
REMARK   93  A    between atoms: _265  and  _268
REMARK   94  A    between atoms: _268  and  _269
REMARK   95  A    between atoms: _269  and  _270
REMARK   96  A    between atoms: _273  and  _275
REMARK   97  A    between atoms: _275  and  _276
REMARK   98  A    between atoms: _275  and  _278
REMARK   99  A    between atoms: _282  and  _283
REMARK  100  A    between atoms: _288  and  _290
REMARK  101  A    between atoms: _290  and  _291
REMARK  102  A    between atoms: _290  and  _293
REMARK  103  A    between atoms: _296  and  _298
REMARK  104  A    between atoms: _298  and  _299
REMARK  105  A    between atoms: _298  and  _301
REMARK  106  A    between atoms: _301  and  _302
REMARK  107  A    between atoms: _307  and  _309
REMARK  108  A    between atoms: _309  and  _310
REMARK  109  A    between atoms: _309  and  _312
REMARK  110  A    between atoms: _312  and  _313
REMARK  111  A    between atoms: _319  and  _321
REMARK  112  A    between atoms: _321  and  _322
REMARK  113  A    between atoms: _321  and  _324
REMARK  114  A    between atoms: _324  and  _325
REMARK  115  A    between atoms: _328  and  _330
REMARK  116  A    between atoms: _330  and  _331
REMARK                            x       y       z     vdW  Elec       q    Type
REMARK                         _______ _______ _______ _____ _____    ______ ____
ROOT
ATOM      1  NE  ARG A   1      45.597   2.717   7.532  0.00  0.00    -0.265 N 
ATOM      2  CZ  ARG A   1      45.436   1.860   8.541  0.00  0.00    +0.342 C 
ATOM      3  NH2 ARG A   1      44.509   2.087   9.464  0.00  0.00    -0.292 N 
ATOM      4 HH21 ARG A   1      44.384   1.418  10.251  0.00  0.00    +0.255 HD
ATOM      5 HH22 ARG A   1      43.908   2.933   9.400  0.00  0.00    +0.255 HD
ATOM      6  NH1 ARG A   1      46.200   0.778   8.635  0.00  0.00    -0.292 N 
ATOM      7 HH11 ARG A   1      46.068   0.115   9.425  0.00  0.00    +0.255 HD
ATOM      8 HH12 ARG A   1      46.931   0.594   7.918  0.00  0.00    +0.255 HD
ATOM      9  HE  ARG A   1      44.977   3.552   7.508  0.00  0.00    +0.259 HD
ENDROOT
BRANCH   1  10
ATOM     10  CD  ARG A   1      46.578   2.574   6.457  0.00  0.00    +0.174 C 
BRANCH  10  11
ATOM     11  CG  ARG A   1      46.383   3.626   5.373  0.00  0.00    +0.045 C 
BRANCH  11  12
ATOM     12  CB  ARG A   1      47.236   3.347   4.144  0.00  0.00    +0.029 C 
BRANCH  12  13
ATOM     13  CA  ARG A   1      46.659   3.843   2.813  0.00  0.00    +0.133 C 
BRANCH  13  14
ATOM     14  N   ARG A   1      46.234   5.245   2.892  0.00  0.00    -0.239 NA
ATOM     15  H   ARG A   1      45.247   5.428   3.163  0.00  0.00    +0.142 HD
ENDBRANCH  13  14
BRANCH  13  16
ATOM     16  C   ARG A   1      45.401   3.049   2.475  0.00  0.00    +0.224 C 
ATOM     17  O   ARG A   1      44.332   3.638   2.376  0.00  0.00    -0.287 OA
ENDBRANCH  13  16
ENDBRANCH  12  13
ENDBRANCH  11  12
ENDBRANCH  10  11
ENDBRANCH   1  10
TORSDOF 6
REMARK  Name = ../refined-set-2016/1z6s/1z6s_pocket.pdb
REMARK  116 active torsions:
REMARK  status: ('A' for Active; 'I' for Inactive)
REMARK    1  A    between atoms: _1  and  _3
REMARK    2  A    between atoms: _3  and  _4
REMARK    3  A    between atoms: _7  and  _9
REMARK    4  A    between atoms: _9  and  _10
REMARK    5  A    between atoms: _9  and  _12
REMARK    6  A    between atoms: _12  and  _13
REMARK    7  A    between atoms: _13  and  _14
REMARK    8  A    between atoms: _14  and  _15
REMARK    9  A    between atoms: _15  and  _16
REMARK   10  A    between atoms: _20  and  _22
REMARK   11  A    between atoms: _22  and  _23
REMARK   12  A    between atoms: _22  and  _25
REMARK   13  A    between atoms: _25  and  _26
REMARK   14  A    between atoms: _32  and  _34
REMARK   15  A    between atoms: _34  and  _35
REMARK   16  A    between atoms: _34  and  _37
REMARK   17  A    between atoms: _37  and  _38
REMARK   18  A    between atoms: _38  and  _39
REMARK   19  A    between atoms: _39  and  _40
REMARK   20  A    between atoms: _49  and  _51
REMARK   21  A    between atoms: _51  and  _52
REMARK   22  A    between atoms: _51  and  _54
REMARK   23  A    between atoms: _54  and  _55
REMARK   24  A    between atoms: _55  and  _56
REMARK   25  A    between atoms: _61  and  _63
REMARK   26  A    between atoms: _63  and  _64
REMARK   27  A    between atoms: _63  and  _66
REMARK   28  A    between atoms: _66  and  _67
REMARK   29  A    between atoms: _72  and  _74
REMARK   30  A    between atoms: _74  and  _75
REMARK   31  A    between atoms: _74  and  _77
REMARK   32  A    between atoms: _77  and  _78
REMARK   33  A    between atoms: _81  and  _83
REMARK   34  A    between atoms: _83  and  _84
REMARK   35  A    between atoms: _83  and  _86
REMARK   36  A    between atoms: _86  and  _87
REMARK   37  A    between atoms: _87  and  _88
REMARK   38  A    between atoms: _88  and  _89
REMARK   39  A    between atoms: _98  and  _100
REMARK   40  A    between atoms: _100  and  _101
REMARK   41  A    between atoms: _100  and  _103
REMARK   42  A    between atoms: _103  and  _104
REMARK   43  A    between atoms: _104  and  _105
REMARK   44  A    between atoms: _105  and  _106
REMARK   45  A    between atoms: _106  and  _107
REMARK   46  A    between atoms: _111  and  _113
REMARK   47  A    between atoms: _113  and  _114
REMARK   48  A    between atoms: _113  and  _116
REMARK   49  A    between atoms: _119  and  _121
REMARK   50  A    between atoms: _121  and  _122
REMARK   51  A    between atoms: _121  and  _124
REMARK   52  A    between atoms: _124  and  _125
REMARK   53  A    between atoms: _130  and  _132
REMARK   54  A    between atoms: _132  and  _133
REMARK   55  A    between atoms: _132  and  _135
REMARK   56  A    between atoms: _135  and  _136
REMARK   57  A    between atoms: _139  and  _141
REMARK   58  A    between atoms: _141  and  _142
REMARK   59  A    between atoms: _141  and  _144
REMARK   60  A    between atoms: _147  and  _149
REMARK   61  A    between atoms: _149  and  _150
REMARK   62  A    between atoms: _153  and  _155
REMARK   63  A    between atoms: _162  and  _165
REMARK   64  A    between atoms: _165  and  _166
REMARK   65  A    between atoms: _166  and  _167
REMARK   66  A    between atoms: _167  and  _168
REMARK   67  A    between atoms: _168  and  _169
REMARK   68  A    between atoms: _175  and  _178
REMARK   69  A    between atoms: _178  and  _179
REMARK   70  A    between atoms: _191  and  _194
REMARK   71  A    between atoms: _194  and  _195
REMARK   72  A    between atoms: _195  and  _196
REMARK   73  A    between atoms: _203  and  _206
REMARK   74  A    between atoms: _206  and  _207
REMARK   75  A    between atoms: _212  and  _215
REMARK   76  A    between atoms: _215  and  _216
REMARK   77  A    between atoms: _223  and  _224
REMARK   78  A    between atoms: _228  and  _230
REMARK   79  A    between atoms: _230  and  _231
REMARK   80  A    between atoms: _230  and  _233
REMARK   81  A    between atoms: _233  and  _234
REMARK   82  A    between atoms: _239  and  _240
REMARK   83  A    between atoms: _242  and  _244
REMARK   84  A    between atoms: _244  and  _245
REMARK   85  A    between atoms: _244  and  _247
REMARK   86  A    between atoms: _250  and  _252
REMARK   87  A    between atoms: _252  and  _253
REMARK   88  A    between atoms: _256  and  _258
REMARK   89  A    between atoms: _258  and  _259
REMARK   90  A    between atoms: _258  and  _261
REMARK   91  A    between atoms: _263  and  _265
REMARK   92  A    between atoms: _265  and  _266
REMARK   93  A    between atoms: _265  and  _268
REMARK   94  A    between atoms: _268  and  _269
REMARK   95  A    between atoms: _269  and  _270
REMARK   96  A    between atoms: _273  and  _275
REMARK   97  A    between atoms: _275  and  _276
REMARK   98  A    between atoms: _275  and  _278
REMARK   99  A    between atoms: _282  and  _283
REMARK  100  A    between atoms: _288  and  _290
REMARK  101  A    between atoms: _290  and  _291
REMARK  102  A    between atoms: _290  and  _293
REMARK  103  A    between atoms: _296  and  _298
REMARK  104  A    between atoms: _298  and  _299
REMARK  105  A    between atoms: _298  and  _301
REMARK  106  A    between atoms: _301  and  _302
REMARK  107  A    between atoms: _307  and  _309
REMARK  108  A    between atoms: _309  and  _310
REMARK  109  A    between atoms: _309  and  _312
REMARK  110  A    between atoms: _312  and  _313
REMARK  111  A    between atoms: _319  and  _321
REMARK  112  A    between atoms: _321  and  _322
REMARK  113  A    between atoms: _321  and  _324
REMARK  114  A    between atoms: _324  and  _325
REMARK  115  A    between atoms: _328  and  _330
REMARK  116  A    between atoms: _330  and  _331
REMARK                            x       y       z     vdW  Elec       q    Type
REMARK                         _______ _______ _______ _____ _____    ______ ____
ROOT
ATOM      1  CG  LYS A   1      40.572   1.276   7.257  0.00  0.00    -0.000 C 
ENDROOT
BRANCH   1   2
ATOM      2  CB  LYS A   1      41.001   1.466   5.808  0.00  0.00    +0.025 C 
BRANCH   2   3
ATOM      3  CA  LYS A   1      42.293   0.733   5.451  0.00  0.00    +0.133 C 
BRANCH   3   4
ATOM      4  N   LYS A   1      42.792   1.119   4.127  0.00  0.00    -0.239 NA
ATOM      5  H   LYS A   1      42.263   1.804   3.550  0.00  0.00    +0.142 HD
ENDBRANCH   3   4
BRANCH   3   6
ATOM      6  C   LYS A   1      42.086  -0.781   5.394  0.00  0.00    +0.224 C 
ATOM      7  O   LYS A   1      41.412  -1.274   4.492  0.00  0.00    -0.287 OA
ENDBRANCH   3   6
ENDBRANCH   2   3
ENDBRANCH   1   2
BRANCH   1   8
ATOM      8  CD  LYS A   1      39.315   2.066   7.601  0.00  0.00    -0.024 C 
BRANCH   8   9
ATOM      9  CE  LYS A   1      38.892   1.794   9.058  0.00  0.00    -0.086 C 
BRANCH   9  10
ATOM     10  NZ  LYS A   1      37.593   2.431   9.466  0.00  0.00    +0.380 N 
ATOM     11  HZ1 LYS A   1      37.389   2.195  10.458  0.00  0.00    -0.089 HD
ATOM     12  HZ2 LYS A   1      37.667   3.463   9.362  0.00  0.00    -0.089 HD
ATOM     13  HZ3 LYS A   1      36.828   2.074   8.859  0.00  0.00    -0.089 HD
ENDBRANCH   9  10
ENDBRANCH   8   9
ENDBRANCH   1   8
TORSDOF 7
REMARK  Name = ../refined-set-2016/1z6s/1z6s_pocket.pdb
REMARK  116 active torsions:
REMARK  status: ('A' for Active; 'I' for Inactive)
REMARK    1  A    between atoms: _1  and  _3
REMARK    2  A    between atoms: _3  and  _4
REMARK    3  A    between atoms: _7  and  _9
REMARK    4  A    between atoms: _9  and  _10
REMARK    5  A    between atoms: _9  and  _12
REMARK    6  A    between atoms: _12  and  _13
REMARK    7  A    between atoms: _13  and  _14
REMARK    8  A    between atoms: _14  and  _15
REMARK    9  A    between atoms: _15  and  _16
REMARK   10  A    between atoms: _20  and  _22
REMARK   11  A    between atoms: _22  and  _23
REMARK   12  A    between atoms: _22  and  _25
REMARK   13  A    between atoms: _25  and  _26
REMARK   14  A    between atoms: _32  and  _34
REMARK   15  A    between atoms: _34  and  _35
REMARK   16  A    between atoms: _34  and  _37
REMARK   17  A    between atoms: _37  and  _38
REMARK   18  A    between atoms: _38  and  _39
REMARK   19  A    between atoms: _39  and  _40
REMARK   20  A    between atoms: _49  and  _51
REMARK   21  A    between atoms: _51  and  _52
REMARK   22  A    between atoms: _51  and  _54
REMARK   23  A    between atoms: _54  and  _55
REMARK   24  A    between atoms: _55  and  _56
REMARK   25  A    between atoms: _61  and  _63
REMARK   26  A    between atoms: _63  and  _64
REMARK   27  A    between atoms: _63  and  _66
REMARK   28  A    between atoms: _66  and  _67
REMARK   29  A    between atoms: _72  and  _74
REMARK   30  A    between atoms: _74  and  _75
REMARK   31  A    between atoms: _74  and  _77
REMARK   32  A    between atoms: _77  and  _78
REMARK   33  A    between atoms: _81  and  _83
REMARK   34  A    between atoms: _83  and  _84
REMARK   35  A    between atoms: _83  and  _86
REMARK   36  A    between atoms: _86  and  _87
REMARK   37  A    between atoms: _87  and  _88
REMARK   38  A    between atoms: _88  and  _89
REMARK   39  A    between atoms: _98  and  _100
REMARK   40  A    between atoms: _100  and  _101
REMARK   41  A    between atoms: _100  and  _103
REMARK   42  A    between atoms: _103  and  _104
REMARK   43  A    between atoms: _104  and  _105
REMARK   44  A    between atoms: _105  and  _106
REMARK   45  A    between atoms: _106  and  _107
REMARK   46  A    between atoms: _111  and  _113
REMARK   47  A    between atoms: _113  and  _114
REMARK   48  A    between atoms: _113  and  _116
REMARK   49  A    between atoms: _119  and  _121
REMARK   50  A    between atoms: _121  and  _122
REMARK   51  A    between atoms: _121  and  _124
REMARK   52  A    between atoms: _124  and  _125
REMARK   53  A    between atoms: _130  and  _132
REMARK   54  A    between atoms: _132  and  _133
REMARK   55  A    between atoms: _132  and  _135
REMARK   56  A    between atoms: _135  and  _136
REMARK   57  A    between atoms: _139  and  _141
REMARK   58  A    between atoms: _141  and  _142
REMARK   59  A    between atoms: _141  and  _144
REMARK   60  A    between atoms: _147  and  _149
REMARK   61  A    between atoms: _149  and  _150
REMARK   62  A    between atoms: _153  and  _155
REMARK   63  A    between atoms: _162  and  _165
REMARK   64  A    between atoms: _165  and  _166
REMARK   65  A    between atoms: _166  and  _167
REMARK   66  A    between atoms: _167  and  _168
REMARK   67  A    between atoms: _168  and  _169
REMARK   68  A    between atoms: _175  and  _178
REMARK   69  A    between atoms: _178  and  _179
REMARK   70  A    between atoms: _191  and  _194
REMARK   71  A    between atoms: _194  and  _195
REMARK   72  A    between atoms: _195  and  _196
REMARK   73  A    between atoms: _203  and  _206
REMARK   74  A    between atoms: _206  and  _207
REMARK   75  A    between atoms: _212  and  _215
REMARK   76  A    between atoms: _215  and  _216
REMARK   77  A    between atoms: _223  and  _224
REMARK   78  A    between atoms: _228  and  _230
REMARK   79  A    between atoms: _230  and  _231
REMARK   80  A    between atoms: _230  and  _233
REMARK   81  A    between atoms: _233  and  _234
REMARK   82  A    between atoms: _239  and  _240
REMARK   83  A    between atoms: _242  and  _244
REMARK   84  A    between atoms: _244  and  _245
REMARK   85  A    between atoms: _244  and  _247
REMARK   86  A    between atoms: _250  and  _252
REMARK   87  A    between atoms: _252  and  _253
REMARK   88  A    between atoms: _256  and  _258
REMARK   89  A    between atoms: _258  and  _259
REMARK   90  A    between atoms: _258  and  _261
REMARK   91  A    between atoms: _263  and  _265
REMARK   92  A    between atoms: _265  and  _266
REMARK   93  A    between atoms: _265  and  _268
REMARK   94  A    between atoms: _268  and  _269
REMARK   95  A    between atoms: _269  and  _270
REMARK   96  A    between atoms: _273  and  _275
REMARK   97  A    between atoms: _275  and  _276
REMARK   98  A    between atoms: _275  and  _278
REMARK   99  A    between atoms: _282  and  _283
REMARK  100  A    between atoms: _288  and  _290
REMARK  101  A    between atoms: _290  and  _291
REMARK  102  A    between atoms: _290  and  _293
REMARK  103  A    between atoms: _296  and  _298
REMARK  104  A    between atoms: _298  and  _299
REMARK  105  A    between atoms: _298  and  _301
REMARK  106  A    between atoms: _301  and  _302
REMARK  107  A    between atoms: _307  and  _309
REMARK  108  A    between atoms: _309  and  _310
REMARK  109  A    between atoms: _309  and  _312
REMARK  110  A    between atoms: _312  and  _313
REMARK  111  A    between atoms: _319  and  _321
REMARK  112  A    between atoms: _321  and  _322
REMARK  113  A    between atoms: _321  and  _324
REMARK  114  A    between atoms: _324  and  _325
REMARK  115  A    between atoms: _328  and  _330
REMARK  116  A    between atoms: _330  and  _331
REMARK                            x       y       z     vdW  Elec       q    Type
REMARK                         _______ _______ _______ _____ _____    ______ ____
ROOT
ATOM      1  CA  ASN A   2      35.921  -1.868   7.644  0.00  0.00    +0.158 C 
ENDROOT
BRANCH   1   4
ATOM      2  C   VAL A   1      38.213  -2.693   7.763  0.00  0.00    +0.238 C 
ATOM      3  O   VAL A   1      38.574  -1.700   8.396  0.00  0.00    -0.274 OA
ATOM      4  N   ASN A   2      36.958  -2.872   7.355  0.00  0.00    -0.297 N 
ATOM      5  H   ASN A   2      36.708  -3.732   6.826  0.00  0.00    +0.150 HD
BRANCH   2   6
ATOM      6  CA  VAL A   1      39.197  -3.800   7.450  0.00  0.00    +0.145 C 
BRANCH   6   7
ATOM      7  CB  VAL A   1      39.107  -4.851   8.601  0.00  0.00    +0.025 C 
ATOM      8  CG2 VAL A   1      39.394  -4.237   9.961  0.00  0.00    +0.002 C 
ATOM      9  CG1 VAL A   1      40.015  -6.040   8.340  0.00  0.00    +0.002 C 
ENDBRANCH   6   7
BRANCH   6  10
ATOM     10  N   VAL A   1      40.538  -3.230   7.275  0.00  0.00    -0.238 NA
ATOM     11  H   VAL A   1      40.835  -2.447   7.892  0.00  0.00    +0.142 HD
ENDBRANCH   6  10
ENDBRANCH   2   6
ENDBRANCH   1   4
BRANCH   1  12
ATOM     12  C   ASN A   2      34.540  -2.453   7.446  0.00  0.00    +0.241 C 
ATOM     13  N   THR A   3      33.577  -2.038   8.265  0.00  0.00    -0.296 N 
ATOM     14  H   THR A   3      33.809  -1.342   9.002  0.00  0.00    +0.150 HD
ATOM     15  O   ASN A   2      34.356  -3.264   6.551  0.00  0.00    -0.273 OA
BRANCH  13  16
ATOM     16  CA  THR A   3      32.209  -2.527   8.163  0.00  0.00    +0.164 C 
BRANCH  16  17
ATOM     17  CB  THR A   3      31.777  -3.202   9.489  0.00  0.00    +0.136 C 
ATOM     18  CG2 THR A   3      30.356  -3.748   9.402  0.00  0.00    +0.034 C 
BRANCH  17  19
ATOM     19  OG1 THR A   3      32.705  -4.260   9.770  0.00  0.00    -0.382 OA
ATOM     20  HG1 THR A   3      32.689  -4.917   9.030  0.00  0.00    +0.210 HD
ENDBRANCH  17  19
ENDBRANCH  16  17
BRANCH  16  21
ATOM     21  C   THR A   3      31.242  -1.393   7.827  0.00  0.00    +0.229 C 
ATOM     22  O   THR A   3      31.309  -0.317   8.419  0.00  0.00    -0.286 OA
ENDBRANCH  16  21
ENDBRANCH  13  16
ENDBRANCH   1  12
BRANCH   1  23
ATOM     23  CB  ASN A   2      36.060  -0.666   6.711  0.00  0.00    +0.114 C 
BRANCH  23  24
ATOM     24  CG  ASN A   2      35.181   0.485   7.118  0.00  0.00    +0.222 C 
ATOM     25  OD1 ASN A   2      35.408   1.119   8.166  0.00  0.00    -0.275 OA
ATOM     26  ND2 ASN A   2      34.177   0.794   6.285  0.00  0.00    -0.329 N 
ATOM     27 HD21 ASN A   2      33.548   1.593   6.503  0.00  0.00    +0.145 HD
ATOM     28 HD22 ASN A   2      34.027   0.235   5.421  0.00  0.00    +0.145 HD
ENDBRANCH  23  24
ENDBRANCH   1  23
TORSDOF 11
REMARK  Name = ../refined-set-2016/1z6s/1z6s_pocket.pdb
REMARK  116 active torsions:
REMARK  status: ('A' for Active; 'I' for Inactive)
REMARK    1  A    between atoms: _1  and  _3
REMARK    2  A    between atoms: _3  and  _4
REMARK    3  A    between atoms: _7  and  _9
REMARK    4  A    between atoms: _9  and  _10
REMARK    5  A    between atoms: _9  and  _12
REMARK    6  A    between atoms: _12  and  _13
REMARK    7  A    between atoms: _13  and  _14
REMARK    8  A    between atoms: _14  and  _15
REMARK    9  A    between atoms: _15  and  _16
REMARK   10  A    between atoms: _20  and  _22
REMARK   11  A    between atoms: _22  and  _23
REMARK   12  A    between atoms: _22  and  _25
REMARK   13  A    between atoms: _25  and  _26
REMARK   14  A    between atoms: _32  and  _34
REMARK   15  A    between atoms: _34  and  _35
REMARK   16  A    between atoms: _34  and  _37
REMARK   17  A    between atoms: _37  and  _38
REMARK   18  A    between atoms: _38  and  _39
REMARK   19  A    between atoms: _39  and  _40
REMARK   20  A    between atoms: _49  and  _51
REMARK   21  A    between atoms: _51  and  _52
REMARK   22  A    between atoms: _51  and  _54
REMARK   23  A    between atoms: _54  and  _55
REMARK   24  A    between atoms: _55  and  _56
REMARK   25  A    between atoms: _61  and  _63
REMARK   26  A    between atoms: _63  and  _64
REMARK   27  A    between atoms: _63  and  _66
REMARK   28  A    between atoms: _66  and  _67
REMARK   29  A    between atoms: _72  and  _74
REMARK   30  A    between atoms: _74  and  _75
REMARK   31  A    between atoms: _74  and  _77
REMARK   32  A    between atoms: _77  and  _78
REMARK   33  A    between atoms: _81  and  _83
REMARK   34  A    between atoms: _83  and  _84
REMARK   35  A    between atoms: _83  and  _86
REMARK   36  A    between atoms: _86  and  _87
REMARK   37  A    between atoms: _87  and  _88
REMARK   38  A    between atoms: _88  and  _89
REMARK   39  A    between atoms: _98  and  _100
REMARK   40  A    between atoms: _100  and  _101
REMARK   41  A    between atoms: _100  and  _103
REMARK   42  A    between atoms: _103  and  _104
REMARK   43  A    between atoms: _104  and  _105
REMARK   44  A    between atoms: _105  and  _106
REMARK   45  A    between atoms: _106  and  _107
REMARK   46  A    between atoms: _111  and  _113
REMARK   47  A    between atoms: _113  and  _114
REMARK   48  A    between atoms: _113  and  _116
REMARK   49  A    between atoms: _119  and  _121
REMARK   50  A    between atoms: _121  and  _122
REMARK   51  A    between atoms: _121  and  _124
REMARK   52  A    between atoms: _124  and  _125
REMARK   53  A    between atoms: _130  and  _132
REMARK   54  A    between atoms: _132  and  _133
REMARK   55  A    between atoms: _132  and  _135
REMARK   56  A    between atoms: _135  and  _136
REMARK   57  A    between atoms: _139  and  _141
REMARK   58  A    between atoms: _141  and  _142
REMARK   59  A    between atoms: _141  and  _144
REMARK   60  A    between atoms: _147  and  _149
REMARK   61  A    between atoms: _149  and  _150
REMARK   62  A    between atoms: _153  and  _155
REMARK   63  A    between atoms: _162  and  _165
REMARK   64  A    between atoms: _165  and  _166
REMARK   65  A    between atoms: _166  and  _167
REMARK   66  A    between atoms: _167  and  _168
REMARK   67  A    between atoms: _168  and  _169
REMARK   68  A    between atoms: _175  and  _178
REMARK   69  A    between atoms: _178  and  _179
REMARK   70  A    between atoms: _191  and  _194
REMARK   71  A    between atoms: _194  and  _195
REMARK   72  A    between atoms: _195  and  _196
REMARK   73  A    between atoms: _203  and  _206
REMARK   74  A    between atoms: _206  and  _207
REMARK   75  A    between atoms: _212  and  _215
REMARK   76  A    between atoms: _215  and  _216
REMARK   77  A    between atoms: _223  and  _224
REMARK   78  A    between atoms: _228  and  _230
REMARK   79  A    between atoms: _230  and  _231
REMARK   80  A    between atoms: _230  and  _233
REMARK   81  A    between atoms: _233  and  _234
REMARK   82  A    between atoms: _239  and  _240
REMARK   83  A    between atoms: _242  and  _244
REMARK   84  A    between atoms: _244  and  _245
REMARK   85  A    between atoms: _244  and  _247
REMARK   86  A    between atoms: _250  and  _252
REMARK   87  A    between atoms: _252  and  _253
REMARK   88  A    between atoms: _256  and  _258
REMARK   89  A    between atoms: _258  and  _259
REMARK   90  A    between atoms: _258  and  _261
REMARK   91  A    between atoms: _263  and  _265
REMARK   92  A    between atoms: _265  and  _266
REMARK   93  A    between atoms: _265  and  _268
REMARK   94  A    between atoms: _268  and  _269
REMARK   95  A    between atoms: _269  and  _270
REMARK   96  A    between atoms: _273  and  _275
REMARK   97  A    between atoms: _275  and  _276
REMARK   98  A    between atoms: _275  and  _278
REMARK   99  A    between atoms: _282  and  _283
REMARK  100  A    between atoms: _288  and  _290
REMARK  101  A    between atoms: _290  and  _291
REMARK  102  A    between atoms: _290  and  _293
REMARK  103  A    between atoms: _296  and  _298
REMARK  104  A    between atoms: _298  and  _299
REMARK  105  A    between atoms: _298  and  _301
REMARK  106  A    between atoms: _301  and  _302
REMARK  107  A    between atoms: _307  and  _309
REMARK  108  A    between atoms: _309  and  _310
REMARK  109  A    between atoms: _309  and  _312
REMARK  110  A    between atoms: _312  and  _313
REMARK  111  A    between atoms: _319  and  _321
REMARK  112  A    between atoms: _321  and  _322
REMARK  113  A    between atoms: _321  and  _324
REMARK  114  A    between atoms: _324  and  _325
REMARK  115  A    between atoms: _328  and  _330
REMARK  116  A    between atoms: _330  and  _331
REMARK                            x       y       z     vdW  Elec       q    Type
REMARK                         _______ _______ _______ _____ _____    ______ ____
ROOT
ATOM      1  CA  CYS A   3      34.588  -2.232  24.411  0.00  0.00    +0.160 C 
ATOM      2  CB  CYS A   3      34.980  -0.757  24.326  0.00  0.00    +0.098 C 
ATOM      3  SG  CYS A   3      33.610   0.399  24.459  0.00  0.00    -0.080 S 
ATOM      4  SG  CYS A  10      32.494  -0.031  22.803  0.00  0.00    -0.080 S 
ATOM      5  CB  CYS A  10      30.971  -0.742  23.495  0.00  0.00    +0.098 C 
ATOM      6  CA  CYS A  10      29.955   0.328  23.889  0.00  0.00    +0.160 C 
ATOM      7  N   CYS A  10      30.413   1.089  25.050  0.00  0.00    -0.296 N 
ATOM      8  H   CYS A  10      30.727   0.587  25.905  0.00  0.00    +0.150 HD
ATOM      9  C   ASN A   9      30.431   2.420  25.021  0.00  0.00    +0.241 C 
ATOM     10  CA  ASN A   9      30.865   3.137  26.289  0.00  0.00    +0.158 C 
ATOM     11  N   ASN A   9      31.851   2.391  27.082  0.00  0.00    -0.297 N 
ATOM     12  C   THR A   8      31.494   1.654  28.133  0.00  0.00    +0.243 C 
ATOM     13  CA  THR A   8      32.622   1.074  28.997  0.00  0.00    +0.176 C 
ATOM     14  N   THR A   8      33.933   1.561  28.604  0.00  0.00    -0.295 N 
ATOM     15  H   THR A   8      34.175   2.551  28.812  0.00  0.00    +0.150 HD
ATOM     16  C   GLN A   7      34.836   0.809  27.994  0.00  0.00    +0.241 C 
ATOM     17  CA  GLN A   7      36.204   1.445  27.802  0.00  0.00    +0.149 C 
ATOM     18  N   GLN A   7      37.161   0.425  27.409  0.00  0.00    -0.297 N 
ATOM     19  C   GLY A   6      37.533  -0.512  28.290  0.00  0.00    +0.243 C 
ATOM     20  O   GLY A   6      37.248  -0.450  29.502  0.00  0.00    -0.273 OA
ATOM     21  CA  GLY A   6      38.377  -1.661  27.775  0.00  0.00    +0.176 C 
ATOM     22  N   GLY A   6      38.613  -1.687  26.344  0.00  0.00    -0.295 N 
ATOM     23  C   ASN A   5      39.661  -1.069  25.799  0.00  0.00    +0.241 C 
ATOM     24  O   ASN A   5      40.453  -0.391  26.467  0.00  0.00    -0.273 OA
ATOM     25  CA  ASN A   5      39.820  -1.211  24.272  0.00  0.00    +0.158 C 
ATOM     26  N   ASN A   5      38.730  -1.963  23.624  0.00  0.00    -0.297 N 
ATOM     27  C   LYS A   4      38.762  -3.293  23.554  0.00  0.00    +0.241 C 
ATOM     28  O   LYS A   4      39.663  -3.953  24.033  0.00  0.00    -0.273 OA
ATOM     29  CA  LYS A   4      37.568  -3.988  22.881  0.00  0.00    +0.149 C 
ATOM     30  N   LYS A   4      36.294  -3.298  23.087  0.00  0.00    -0.297 N 
ATOM     31  H   LYS A   4      35.719  -3.027  22.264  0.00  0.00    +0.150 HD
ATOM     32  H   ASN A   5      37.924  -1.448  23.216  0.00  0.00    +0.150 HD
ATOM     33  H   GLY A   6      37.949  -2.200  25.729  0.00  0.00    +0.150 HD
ATOM     34  H   GLN A   7      37.556   0.423  26.447  0.00  0.00    +0.150 HD
ATOM     35  O   GLN A   7      34.615  -0.344  27.593  0.00  0.00    -0.273 OA
ATOM     36  O   THR A   8      30.322   1.468  28.440  0.00  0.00    -0.273 OA
ATOM     37  H   ASN A   9      32.855   2.439  26.816  0.00  0.00    +0.150 HD
ATOM     38  O   ASN A   9      30.134   3.061  24.016  0.00  0.00    -0.273 OA
ATOM     39  C   CYS A   3      35.863  -3.014  24.310  0.00  0.00    +0.242 C 
ATOM     40  O   CYS A   3      36.478  -3.320  25.322  0.00  0.00    -0.273 OA
ENDROOT
BRANCH   1  42
ATOM     41  C   ALA A   2      33.159  -3.600  25.859  0.00  0.00    +0.241 C 
ATOM     42  N   CYS A   3      33.900  -2.504  25.674  0.00  0.00    -0.296 N 
ATOM     43  H   CYS A   3      33.991  -1.821  26.453  0.00  0.00    +0.150 HD
ATOM     44  O   ALA A   2      32.902  -4.422  24.946  0.00  0.00    -0.273 OA
BRANCH  41  45
ATOM     45  CA  ALA A   2      32.636  -3.796  27.279  0.00  0.00    +0.149 C 
ATOM     46  CB  ALA A   2      33.521  -4.742  28.073  0.00  0.00    +0.031 C 
BRANCH  45  48
ATOM     47  C   VAL A   1      30.291  -3.513  26.773  0.00  0.00    +0.238 C 
ATOM     48  N   ALA A   2      31.254  -4.282  27.251  0.00  0.00    -0.297 N 
ATOM     49  H   ALA A   2      31.031  -5.233  27.608  0.00  0.00    +0.150 HD
ATOM     50  O   VAL A   1      30.481  -2.360  26.354  0.00  0.00    -0.274 OA
BRANCH  47  51
ATOM     51  CA  VAL A   1      28.896  -4.130  26.727  0.00  0.00    +0.145 C 
BRANCH  51  52
ATOM     52  CB  VAL A   1      28.792  -5.096  25.495  0.00  0.00    +0.025 C 
ATOM     53  CG2 VAL A   1      27.450  -5.847  25.465  0.00  0.00    +0.002 C 
ATOM     54  CG1 VAL A   1      29.029  -4.361  24.140  0.00  0.00    +0.002 C 
ENDBRANCH  51  52
BRANCH  51  55
ATOM     55  N   VAL A   1      27.873  -3.080  26.692  0.00  0.00    -0.238 NA
ATOM     56  H   VAL A   1      28.008  -2.282  26.039  0.00  0.00    +0.142 HD
ENDBRANCH  51  55
ENDBRANCH  47  51
ENDBRANCH  45  48
ENDBRANCH  41  45
ENDBRANCH   1  42
BRANCH   6  57
ATOM     57  C   CYS A  10      28.598  -0.292  24.085  0.00  0.00    +0.242 C 
ATOM     58  O   CYS A  10      28.168  -0.577  25.216  0.00  0.00    -0.273 OA
ATOM     59  N   TYR A  11      27.903  -0.490  22.969  0.00  0.00    -0.298 N 
ATOM     60  H   TYR A  11      28.361  -0.311  22.052  0.00  0.00    +0.150 HD
BRANCH  59  61
ATOM     61  CA  TYR A  11      26.527  -0.948  22.989  0.00  0.00    +0.141 C 
BRANCH  61  62
ATOM     62  C   TYR A  11      26.302  -1.926  21.872  0.00  0.00    +0.227 C 
ATOM     63  O   TYR A  11      26.742  -1.689  20.737  0.00  0.00    -0.286 OA
ENDBRANCH  61  62
BRANCH  61  64
ATOM     64  CB  TYR A  11      25.560   0.238  22.859  0.00  0.00    +0.054 C 
BRANCH  64  65
ATOM     65  CG  TYR A  11      25.801   1.211  23.965  0.00  0.00    -0.020 A 
ATOM     66  CD2 TYR A  11      25.103   1.109  25.186  0.00  0.00    -0.001 A 
ATOM     67  CE2 TYR A  11      25.389   1.991  26.228  0.00  0.00    +0.036 A 
ATOM     68  CZ  TYR A  11      26.378   2.961  26.057  0.00  0.00    +0.134 A 
ATOM     69  CE1 TYR A  11      27.064   3.070  24.857  0.00  0.00    +0.036 A 
ATOM     70  CD1 TYR A  11      26.766   2.199  23.824  0.00  0.00    -0.001 A 
BRANCH  68  71
ATOM     71  OH  TYR A  11      26.697   3.871  27.049  0.00  0.00    -0.506 OA
ATOM     72  HH  TYR A  11      27.419   4.467  26.728  0.00  0.00    +0.292 HD
ENDBRANCH  68  71
ENDBRANCH  64  65
ENDBRANCH  61  64
ENDBRANCH  59  61
ENDBRANCH   6  57
BRANCH  13  73
ATOM     73  CB  THR A   8      32.329   1.395  30.487  0.00  0.00    +0.137 C 
ATOM     74  CG2 THR A   8      33.396   0.803  31.390  0.00  0.00    +0.034 C 
BRANCH  73  75
ATOM     75  OG1 THR A   8      32.289   2.818  30.668  0.00  0.00    -0.382 OA
ATOM     76  HG1 THR A   8      31.575   3.202  30.100  0.00  0.00    +0.210 HD
ENDBRANCH  73  75
ENDBRANCH  13  73
BRANCH  25  77
ATOM     77  CB  ASN A   5      39.973   0.177  23.613  0.00  0.00    +0.114 C 
BRANCH  77  78
ATOM     78  CG  ASN A   5      38.928   1.179  24.084  0.00  0.00    +0.222 C 
ATOM     79  OD1 ASN A   5      37.886   0.823  24.644  0.00  0.00    -0.275 OA
ATOM     80  ND2 ASN A   5      39.200   2.459  23.827  0.00  0.00    -0.329 N 
ATOM     81 HD21 ASN A   5      38.523   3.200  24.100  0.00  0.00    +0.145 HD
ATOM     82 HD22 ASN A   5      40.089   2.717  23.353  0.00  0.00    +0.145 HD
ENDBRANCH  77  78
ENDBRANCH  25  77
BRANCH  10  83
ATOM     83  CB  ASN A   9      31.376   4.546  25.948  0.00  0.00    +0.114 C 
BRANCH  83  84
ATOM     84  CG  ASN A   9      32.595   4.544  25.045  0.00  0.00    +0.222 C 
ATOM     85  OD1 ASN A   9      33.488   3.706  25.171  0.00  0.00    -0.275 OA
ATOM     86  ND2 ASN A   9      32.627   5.490  24.104  0.00  0.00    -0.329 N 
ATOM     87 HD21 ASN A   9      31.851   6.179  24.033  0.00  0.00    +0.145 HD
ATOM     88 HD22 ASN A   9      33.428   5.538  23.442  0.00  0.00    +0.145 HD
ENDBRANCH  83  84
ENDBRANCH  10  83
BRANCH  17  89
ATOM     89  CB  GLN A   7      36.129   2.560  26.764  0.00  0.00    +0.039 C 
BRANCH  89  90
ATOM     90  CG  GLN A   7      37.249   3.584  26.886  0.00  0.00    +0.087 C 
BRANCH  90  91
ATOM     91  CD  GLN A   7      37.100   4.698  25.869  0.00  0.00    +0.219 C 
ATOM     92  NE2 GLN A   7      36.115   5.583  26.084  0.00  0.00    -0.329 N 
ATOM     93 HE21 GLN A   7      35.512   5.496  26.927  0.00  0.00    +0.145 HD
ATOM     94 HE22 GLN A   7      35.954   6.356  25.408  0.00  0.00    +0.145 HD
ATOM     95  OE1 GLN A   7      37.846   4.751  24.888  0.00  0.00    -0.275 OA
ENDBRANCH  90  91
ENDBRANCH  89  90
ENDBRANCH  17  89
BRANCH  29  96
ATOM     96  CB  LYS A   4      37.851  -4.252  21.391  0.00  0.00    +0.029 C 
BRANCH  96  97
ATOM     97  CG  LYS A   4      36.979  -5.315  20.784  0.00  0.00    +0.000 C 
BRANCH  97  98
ATOM     98  CD  LYS A   4      37.242  -5.431  19.305  0.00  0.00    -0.024 C 
BRANCH  98  99
ATOM     99  CE  LYS A   4      36.495  -6.612  18.757  0.00  0.00    -0.086 C 
BRANCH  99 100
ATOM    100  NZ  LYS A   4      36.474  -6.509  17.277  0.00  0.00    +0.380 N 
ATOM    101  HZ1 LYS A   4      35.999  -5.627  16.999  0.00  0.00    -0.089 HD
ATOM    102  HZ2 LYS A   4      37.450  -6.507  16.917  0.00  0.00    -0.089 HD
ATOM    103  HZ3 LYS A   4      35.959  -7.321  16.881  0.00  0.00    -0.089 HD
ENDBRANCH  99 100
ENDBRANCH  98  99
ENDBRANCH  97  98
ENDBRANCH  96  97
ENDBRANCH  29  96
TORSDOF 26
REMARK  Name = ../refined-set-2016/1z6s/1z6s_pocket.pdb
REMARK  116 active torsions:
REMARK  status: ('A' for Active; 'I' for Inactive)
REMARK    1  A    between atoms: _1  and  _3
REMARK    2  A    between atoms: _3  and  _4
REMARK    3  A    between atoms: _7  and  _9
REMARK    4  A    between atoms: _9  and  _10
REMARK    5  A    between atoms: _9  and  _12
REMARK    6  A    between atoms: _12  and  _13
REMARK    7  A    between atoms: _13  and  _14
REMARK    8  A    between atoms: _14  and  _15
REMARK    9  A    between atoms: _15  and  _16
REMARK   10  A    between atoms: _20  and  _22
REMARK   11  A    between atoms: _22  and  _23
REMARK   12  A    between atoms: _22  and  _25
REMARK   13  A    between atoms: _25  and  _26
REMARK   14  A    between atoms: _32  and  _34
REMARK   15  A    between atoms: _34  and  _35
REMARK   16  A    between atoms: _34  and  _37
REMARK   17  A    between atoms: _37  and  _38
REMARK   18  A    between atoms: _38  and  _39
REMARK   19  A    between atoms: _39  and  _40
REMARK   20  A    between atoms: _49  and  _51
REMARK   21  A    between atoms: _51  and  _52
REMARK   22  A    between atoms: _51  and  _54
REMARK   23  A    between atoms: _54  and  _55
REMARK   24  A    between atoms: _55  and  _56
REMARK   25  A    between atoms: _61  and  _63
REMARK   26  A    between atoms: _63  and  _64
REMARK   27  A    between atoms: _63  and  _66
REMARK   28  A    between atoms: _66  and  _67
REMARK   29  A    between atoms: _72  and  _74
REMARK   30  A    between atoms: _74  and  _75
REMARK   31  A    between atoms: _74  and  _77
REMARK   32  A    between atoms: _77  and  _78
REMARK   33  A    between atoms: _81  and  _83
REMARK   34  A    between atoms: _83  and  _84
REMARK   35  A    between atoms: _83  and  _86
REMARK   36  A    between atoms: _86  and  _87
REMARK   37  A    between atoms: _87  and  _88
REMARK   38  A    between atoms: _88  and  _89
REMARK   39  A    between atoms: _98  and  _100
REMARK   40  A    between atoms: _100  and  _101
REMARK   41  A    between atoms: _100  and  _103
REMARK   42  A    between atoms: _103  and  _104
REMARK   43  A    between atoms: _104  and  _105
REMARK   44  A    between atoms: _105  and  _106
REMARK   45  A    between atoms: _106  and  _107
REMARK   46  A    between atoms: _111  and  _113
REMARK   47  A    between atoms: _113  and  _114
REMARK   48  A    between atoms: _113  and  _116
REMARK   49  A    between atoms: _119  and  _121
REMARK   50  A    between atoms: _121  and  _122
REMARK   51  A    between atoms: _121  and  _124
REMARK   52  A    between atoms: _124  and  _125
REMARK   53  A    between atoms: _130  and  _132
REMARK   54  A    between atoms: _132  and  _133
REMARK   55  A    between atoms: _132  and  _135
REMARK   56  A    between atoms: _135  and  _136
REMARK   57  A    between atoms: _139  and  _141
REMARK   58  A    between atoms: _141  and  _142
REMARK   59  A    between atoms: _141  and  _144
REMARK   60  A    between atoms: _147  and  _149
REMARK   61  A    between atoms: _149  and  _150
REMARK   62  A    between atoms: _153  and  _155
REMARK   63  A    between atoms: _162  and  _165
REMARK   64  A    between atoms: _165  and  _166
REMARK   65  A    between atoms: _166  and  _167
REMARK   66  A    between atoms: _167  and  _168
REMARK   67  A    between atoms: _168  and  _169
REMARK   68  A    between atoms: _175  and  _178
REMARK   69  A    between atoms: _178  and  _179
REMARK   70  A    between atoms: _191  and  _194
REMARK   71  A    between atoms: _194  and  _195
REMARK   72  A    between atoms: _195  and  _196
REMARK   73  A    between atoms: _203  and  _206
REMARK   74  A    between atoms: _206  and  _207
REMARK   75  A    between atoms: _212  and  _215
REMARK   76  A    between atoms: _215  and  _216
REMARK   77  A    between atoms: _223  and  _224
REMARK   78  A    between atoms: _228  and  _230
REMARK   79  A    between atoms: _230  and  _231
REMARK   80  A    between atoms: _230  and  _233
REMARK   81  A    between atoms: _233  and  _234
REMARK   82  A    between atoms: _239  and  _240
REMARK   83  A    between atoms: _242  and  _244
REMARK   84  A    between atoms: _244  and  _245
REMARK   85  A    between atoms: _244  and  _247
REMARK   86  A    between atoms: _250  and  _252
REMARK   87  A    between atoms: _252  and  _253
REMARK   88  A    between atoms: _256  and  _258
REMARK   89  A    between atoms: _258  and  _259
REMARK   90  A    between atoms: _258  and  _261
REMARK   91  A    between atoms: _263  and  _265
REMARK   92  A    between atoms: _265  and  _266
REMARK   93  A    between atoms: _265  and  _268
REMARK   94  A    between atoms: _268  and  _269
REMARK   95  A    between atoms: _269  and  _270
REMARK   96  A    between atoms: _273  and  _275
REMARK   97  A    between atoms: _275  and  _276
REMARK   98  A    between atoms: _275  and  _278
REMARK   99  A    between atoms: _282  and  _283
REMARK  100  A    between atoms: _288  and  _290
REMARK  101  A    between atoms: _290  and  _291
REMARK  102  A    between atoms: _290  and  _293
REMARK  103  A    between atoms: _296  and  _298
REMARK  104  A    between atoms: _298  and  _299
REMARK  105  A    between atoms: _298  and  _301
REMARK  106  A    between atoms: _301  and  _302
REMARK  107  A    between atoms: _307  and  _309
REMARK  108  A    between atoms: _309  and  _310
REMARK  109  A    between atoms: _309  and  _312
REMARK  110  A    between atoms: _312  and  _313
REMARK  111  A    between atoms: _319  and  _321
REMARK  112  A    between atoms: _321  and  _322
REMARK  113  A    between atoms: _321  and  _324
REMARK  114  A    between atoms: _324  and  _325
REMARK  115  A    between atoms: _328  and  _330
REMARK  116  A    between atoms: _330  and  _331
REMARK                            x       y       z     vdW  Elec       q    Type
REMARK                         _______ _______ _______ _____ _____    ______ ____
ROOT
ATOM      1  C   ALA A   2      30.340   4.388  20.687  0.00  0.00    +0.241 C 
ATOM      2  N   CYS A   3      29.772   4.952  21.750  0.00  0.00    -0.296 N 
ATOM      3  H   CYS A   3      29.845   4.473  22.670  0.00  0.00    +0.150 HD
ATOM      4  O   ALA A   2      30.374   4.911  19.549  0.00  0.00    -0.273 OA
ENDROOT
BRANCH   1   5
ATOM      5  CA  ALA A   2      31.004   3.055  20.943  0.00  0.00    +0.149 C 
ATOM      6  CB  ALA A   2      32.490   3.253  21.060  0.00  0.00    +0.031 C 
BRANCH   5   9
ATOM      7  C   VAL A   1      29.710   1.294  19.840  0.00  0.00    +0.238 C 
ATOM      8  O   VAL A   1      29.138   0.969  20.899  0.00  0.00    -0.274 OA
ATOM      9  N   ALA A   2      30.683   2.204  19.797  0.00  0.00    -0.297 N 
ATOM     10  H   ALA A   2      31.232   2.313  18.920  0.00  0.00    +0.150 HD
BRANCH   7  11
ATOM     11  CA  VAL A   1      29.380   0.599  18.527  0.00  0.00    +0.145 C 
BRANCH  11  12
ATOM     12  CB  VAL A   1      28.378   1.469  17.714  0.00  0.00    +0.025 C 
ATOM     13  CG2 VAL A   1      27.067   1.717  18.511  0.00  0.00    +0.002 C 
ATOM     14  CG1 VAL A   1      28.076   0.825  16.341  0.00  0.00    +0.002 C 
ENDBRANCH  11  12
BRANCH  11  15
ATOM     15  N   VAL A   1      28.821  -0.725  18.836  0.00  0.00    -0.238 NA
ATOM     16  H   VAL A   1      28.004  -0.793  19.476  0.00  0.00    +0.142 HD
ENDBRANCH  11  15
ENDBRANCH   7  11
ENDBRANCH   5   9
ENDBRANCH   1   5
BRANCH   2  17
ATOM     17  CA  CYS A   3      29.039   6.237  21.671  0.00  0.00    +0.160 C 
BRANCH  17  18
ATOM     18  C   CYS A   3      29.643   7.298  22.569  0.00  0.00    +0.242 C 
ATOM     19  O   CYS A   3      30.171   6.988  23.646  0.00  0.00    -0.273 OA
ATOM     20  N   GLU A   4      29.554   8.550  22.137  0.00  0.00    -0.298 N 
ATOM     21  H   GLU A   4      29.121   8.733  21.209  0.00  0.00    +0.150 HD
BRANCH  20  22
ATOM     22  CA  GLU A   4      30.044   9.675  22.921  0.00  0.00    +0.137 C 
BRANCH  22  23
ATOM     23  C   GLU A   4      29.206  10.890  22.621  0.00  0.00    +0.227 C 
ATOM     24  O   GLU A   4      28.539  10.928  21.589  0.00  0.00    -0.286 OA
ENDBRANCH  22  23
BRANCH  22  25
ATOM     25  CB  GLU A   4      31.473  10.037  22.515  0.00  0.00    +0.039 C 
BRANCH  25  26
ATOM     26  CG  GLU A   4      32.495   8.971  22.843  0.00  0.00    +0.116 C 
BRANCH  26  27
ATOM     27  CD  GLU A   4      33.901   9.423  22.567  0.00  0.00    +0.365 C 
ATOM     28  OE2 GLU A   4      34.807   8.954  23.287  0.00  0.00    -0.246 OA
ATOM     29  OE1 GLU A   4      34.113  10.223  21.651  0.00  0.00    -0.246 OA
ENDBRANCH  26  27
ENDBRANCH  25  26
ENDBRANCH  22  25
ENDBRANCH  20  22
ENDBRANCH  17  18
BRANCH  17  30
ATOM     30  CB  CYS A   3      27.575   6.013  22.040  0.00  0.00    +0.098 C 
ATOM     31  SG  CYS A   3      26.827   4.713  21.007  0.00  0.00    -0.080 S 
ENDBRANCH  17  30
ENDBRANCH   2  17
TORSDOF 13
REMARK  Name = ../refined-set-2016/1z6s/1z6s_pocket.pdb
REMARK  116 active torsions:
REMARK  status: ('A' for Active; 'I' for Inactive)
REMARK    1  A    between atoms: _1  and  _3
REMARK    2  A    between atoms: _3  and  _4
REMARK    3  A    between atoms: _7  and  _9
REMARK    4  A    between atoms: _9  and  _10
REMARK    5  A    between atoms: _9  and  _12
REMARK    6  A    between atoms: _12  and  _13
REMARK    7  A    between atoms: _13  and  _14
REMARK    8  A    between atoms: _14  and  _15
REMARK    9  A    between atoms: _15  and  _16
REMARK   10  A    between atoms: _20  and  _22
REMARK   11  A    between atoms: _22  and  _23
REMARK   12  A    between atoms: _22  and  _25
REMARK   13  A    between atoms: _25  and  _26
REMARK   14  A    between atoms: _32  and  _34
REMARK   15  A    between atoms: _34  and  _35
REMARK   16  A    between atoms: _34  and  _37
REMARK   17  A    between atoms: _37  and  _38
REMARK   18  A    between atoms: _38  and  _39
REMARK   19  A    between atoms: _39  and  _40
REMARK   20  A    between atoms: _49  and  _51
REMARK   21  A    between atoms: _51  and  _52
REMARK   22  A    between atoms: _51  and  _54
REMARK   23  A    between atoms: _54  and  _55
REMARK   24  A    between atoms: _55  and  _56
REMARK   25  A    between atoms: _61  and  _63
REMARK   26  A    between atoms: _63  and  _64
REMARK   27  A    between atoms: _63  and  _66
REMARK   28  A    between atoms: _66  and  _67
REMARK   29  A    between atoms: _72  and  _74
REMARK   30  A    between atoms: _74  and  _75
REMARK   31  A    between atoms: _74  and  _77
REMARK   32  A    between atoms: _77  and  _78
REMARK   33  A    between atoms: _81  and  _83
REMARK   34  A    between atoms: _83  and  _84
REMARK   35  A    between atoms: _83  and  _86
REMARK   36  A    between atoms: _86  and  _87
REMARK   37  A    between atoms: _87  and  _88
REMARK   38  A    between atoms: _88  and  _89
REMARK   39  A    between atoms: _98  and  _100
REMARK   40  A    between atoms: _100  and  _101
REMARK   41  A    between atoms: _100  and  _103
REMARK   42  A    between atoms: _103  and  _104
REMARK   43  A    between atoms: _104  and  _105
REMARK   44  A    between atoms: _105  and  _106
REMARK   45  A    between atoms: _106  and  _107
REMARK   46  A    between atoms: _111  and  _113
REMARK   47  A    between atoms: _113  and  _114
REMARK   48  A    between atoms: _113  and  _116
REMARK   49  A    between atoms: _119  and  _121
REMARK   50  A    between atoms: _121  and  _122
REMARK   51  A    between atoms: _121  and  _124
REMARK   52  A    between atoms: _124  and  _125
REMARK   53  A    between atoms: _130  and  _132
REMARK   54  A    between atoms: _132  and  _133
REMARK   55  A    between atoms: _132  and  _135
REMARK   56  A    between atoms: _135  and  _136
REMARK   57  A    between atoms: _139  and  _141
REMARK   58  A    between atoms: _141  and  _142
REMARK   59  A    between atoms: _141  and  _144
REMARK   60  A    between atoms: _147  and  _149
REMARK   61  A    between atoms: _149  and  _150
REMARK   62  A    between atoms: _153  and  _155
REMARK   63  A    between atoms: _162  and  _165
REMARK   64  A    between atoms: _165  and  _166
REMARK   65  A    between atoms: _166  and  _167
REMARK   66  A    between atoms: _167  and  _168
REMARK   67  A    between atoms: _168  and  _169
REMARK   68  A    between atoms: _175  and  _178
REMARK   69  A    between atoms: _178  and  _179
REMARK   70  A    between atoms: _191  and  _194
REMARK   71  A    between atoms: _194  and  _195
REMARK   72  A    between atoms: _195  and  _196
REMARK   73  A    between atoms: _203  and  _206
REMARK   74  A    between atoms: _206  and  _207
REMARK   75  A    between atoms: _212  and  _215
REMARK   76  A    between atoms: _215  and  _216
REMARK   77  A    between atoms: _223  and  _224
REMARK   78  A    between atoms: _228  and  _230
REMARK   79  A    between atoms: _230  and  _231
REMARK   80  A    between atoms: _230  and  _233
REMARK   81  A    between atoms: _233  and  _234
REMARK   82  A    between atoms: _239  and  _240
REMARK   83  A    between atoms: _242  and  _244
REMARK   84  A    between atoms: _244  and  _245
REMARK   85  A    between atoms: _244  and  _247
REMARK   86  A    between atoms: _250  and  _252
REMARK   87  A    between atoms: _252  and  _253
REMARK   88  A    between atoms: _256  and  _258
REMARK   89  A    between atoms: _258  and  _259
REMARK   90  A    between atoms: _258  and  _261
REMARK   91  A    between atoms: _263  and  _265
REMARK   92  A    between atoms: _265  and  _266
REMARK   93  A    between atoms: _265  and  _268
REMARK   94  A    between atoms: _268  and  _269
REMARK   95  A    between atoms: _269  and  _270
REMARK   96  A    between atoms: _273  and  _275
REMARK   97  A    between atoms: _275  and  _276
REMARK   98  A    between atoms: _275  and  _278
REMARK   99  A    between atoms: _282  and  _283
REMARK  100  A    between atoms: _288  and  _290
REMARK  101  A    between atoms: _290  and  _291
REMARK  102  A    between atoms: _290  and  _293
REMARK  103  A    between atoms: _296  and  _298
REMARK  104  A    between atoms: _298  and  _299
REMARK  105  A    between atoms: _298  and  _301
REMARK  106  A    between atoms: _301  and  _302
REMARK  107  A    between atoms: _307  and  _309
REMARK  108  A    between atoms: _309  and  _310
REMARK  109  A    between atoms: _309  and  _312
REMARK  110  A    between atoms: _312  and  _313
REMARK  111  A    between atoms: _319  and  _321
REMARK  112  A    between atoms: _321  and  _322
REMARK  113  A    between atoms: _321  and  _324
REMARK  114  A    between atoms: _324  and  _325
REMARK  115  A    between atoms: _328  and  _330
REMARK  116  A    between atoms: _330  and  _331
REMARK                            x       y       z     vdW  Elec       q    Type
REMARK                         _______ _______ _______ _____ _____    ______ ____
ROOT
ATOM      1  CA  HIS A   4      33.368   4.072  16.554  0.00  0.00    +0.155 C 
ENDROOT
BRANCH   1   3
ATOM      2  C   VAL A   3      32.668   6.389  16.621  0.00  0.00    +0.241 C 
ATOM      3  N   HIS A   4      32.394   5.107  16.872  0.00  0.00    -0.297 N 
ATOM      4  H   HIS A   4      31.481   4.846  17.296  0.00  0.00    +0.150 HD
ATOM      5  O   VAL A   3      33.698   6.729  16.065  0.00  0.00    -0.273 OA
BRANCH   2   6
ATOM      6  CA  VAL A   3      31.643   7.465  17.033  0.00  0.00    +0.149 C 
BRANCH   6   8
ATOM      7  C   PRO A   2      29.203   7.213  16.998  0.00  0.00    +0.241 C 
ATOM      8  N   VAL A   3      30.389   6.877  17.508  0.00  0.00    -0.297 N 
ATOM      9  H   VAL A   3      30.424   6.171  18.271  0.00  0.00    +0.150 HD
ATOM     10  O   PRO A   2      29.040   8.068  16.114  0.00  0.00    -0.273 OA
BRANCH   7  14
ATOM     11  C   VAL A   1      26.992   8.166  18.860  0.00  0.00    +0.241 C 
ATOM     12  O   VAL A   1      28.015   8.276  19.540  0.00  0.00    -0.273 OA
ATOM     13  N   PRO A   2      26.872   7.277  17.859  0.00  0.00    -0.272 N 
ATOM     14  CA  PRO A   2      28.012   6.430  17.543  0.00  0.00    +0.152 C 
ATOM     15  CB  PRO A   2      27.475   5.489  16.463  0.00  0.00    +0.031 C 
ATOM     16  CG  PRO A   2      25.996   5.537  16.616  0.00  0.00    +0.024 C 
ATOM     17  CD  PRO A   2      25.681   6.943  17.051  0.00  0.00    +0.094 C 
BRANCH  11  18
ATOM     18  CA  VAL A   1      25.780   9.047  19.156  0.00  0.00    +0.145 C 
BRANCH  18  19
ATOM     19  CB  VAL A   1      25.638  10.107  18.048  0.00  0.00    +0.025 C 
ATOM     20  CG2 VAL A   1      24.279  10.806  18.169  0.00  0.00    +0.002 C 
ATOM     21  CG1 VAL A   1      26.773  11.112  18.123  0.00  0.00    +0.002 C 
ENDBRANCH  18  19
BRANCH  18  22
ATOM     22  N   VAL A   1      25.873   9.677  20.475  0.00  0.00    -0.238 NA
ATOM     23  H   VAL A   1      26.768  10.117  20.771  0.00  0.00    +0.142 HD
ENDBRANCH  18  22
ENDBRANCH  11  18
ENDBRANCH   7  14
ENDBRANCH   6   8
BRANCH   6  24
ATOM     24  CB  VAL A   3      32.253   8.438  18.078  0.00  0.00    +0.027 C 
ATOM     25  CG2 VAL A   3      32.623   7.681  19.373  0.00  0.00    +0.002 C 
ATOM     26  CG1 VAL A   3      31.298   9.622  18.359  0.00  0.00    +0.002 C 
ENDBRANCH   6  24
ENDBRANCH   2   6
ENDBRANCH   1   3
BRANCH   1  27
ATOM     27  C   HIS A   4      32.632   2.758  16.361  0.00  0.00    +0.241 C 
ATOM     28  O   HIS A   4      31.698   2.442  17.100  0.00  0.00    -0.273 OA
ATOM     29  N   PHE A   5      33.031   2.003  15.342  0.00  0.00    -0.297 N 
ATOM     30  H   PHE A   5      33.755   2.366  14.689  0.00  0.00    +0.150 HD
BRANCH  29  31
ATOM     31  CA  PHE A   5      32.474   0.682  15.125  0.00  0.00    +0.153 C 
BRANCH  31  32
ATOM     32  C   PHE A   5      33.390  -0.316  15.793  0.00  0.00    +0.241 C 
ATOM     33  N   ASP A   6      32.866  -1.058  16.777  0.00  0.00    -0.297 N 
ATOM     34  H   ASP A   6      31.847  -1.020  16.981  0.00  0.00    +0.150 HD
ATOM     35  O   PHE A   5      34.560  -0.406  15.437  0.00  0.00    -0.273 OA
BRANCH  33  36
ATOM     36  CA  ASP A   6      33.751  -1.926  17.564  0.00  0.00    +0.160 C 
BRANCH  36  37
ATOM     37  C   ASP A   6      33.811  -3.363  17.082  0.00  0.00    +0.241 C 
ATOM     38  O   ASP A   6      34.894  -3.956  17.059  0.00  0.00    -0.273 OA
ATOM     39  N   ALA A   7      32.656  -3.938  16.724  0.00  0.00    -0.298 N 
ATOM     40  H   ALA A   7      31.796  -3.356  16.668  0.00  0.00    +0.150 HD
BRANCH  39  41
ATOM     41  CA  ALA A   7      32.573  -5.369  16.409  0.00  0.00    +0.137 C 
ATOM     42  CB  ALA A   7      32.785  -6.222  17.664  0.00  0.00    +0.030 C 
BRANCH  41  43
ATOM     43  C   ALA A   7      31.215  -5.711  15.860  0.00  0.00    +0.227 C 
ATOM     44  O   ALA A   7      30.254  -4.987  16.019  0.00  0.00    -0.286 OA
ENDBRANCH  41  43
ENDBRANCH  39  41
ENDBRANCH  36  37
BRANCH  36  45
ATOM     45  CB  ASP A   6      33.350  -1.912  19.042  0.00  0.00    +0.143 C 
BRANCH  45  46
ATOM     46  CG  ASP A   6      34.529  -2.122  19.974  0.00  0.00    +0.367 C 
ATOM     47  OD2 ASP A   6      34.438  -2.963  20.917  0.00  0.00    -0.246 OA
ATOM     48  OD1 ASP A   6      35.589  -1.474  19.779  0.00  0.00    -0.246 OA
ENDBRANCH  45  46
ENDBRANCH  36  45
ENDBRANCH  33  36
ENDBRANCH  31  32
BRANCH  31  49
ATOM     49  CB  PHE A   5      32.331   0.378  13.627  0.00  0.00    +0.055 C 
BRANCH  49  50
ATOM     50  CG  PHE A   5      31.529  -0.866  13.357  0.00  0.00    -0.020 A 
ATOM     51  CD2 PHE A   5      32.153  -2.132  13.349  0.00  0.00    -0.004 A 
ATOM     52  CE2 PHE A   5      31.407  -3.293  13.146  0.00  0.00    -0.000 A 
ATOM     53  CZ  PHE A   5      30.027  -3.205  12.942  0.00  0.00    -0.000 A 
ATOM     54  CE1 PHE A   5      29.390  -1.954  12.962  0.00  0.00    -0.000 A 
ATOM     55  CD1 PHE A   5      30.146  -0.789  13.164  0.00  0.00    -0.004 A 
ENDBRANCH  49  50
ENDBRANCH  31  49
ENDBRANCH  29  31
ENDBRANCH   1  27
BRANCH   1  56
ATOM     56  CB  HIS A   4      34.404   3.978  17.691  0.00  0.00    +0.076 C 
BRANCH  56  57
ATOM     57  CG  HIS A   4      35.127   2.665  17.756  0.00  0.00    +0.082 A 
ATOM     58  CD2 HIS A   4      35.005   1.621  18.616  0.00  0.00    +0.115 A 
ATOM     59  NE2 HIS A   4      35.916   0.671  18.232  0.00  0.00    -0.221 NA
ATOM     60  CE1 HIS A   4      36.588   1.113  17.185  0.00  0.00    +0.199 A 
ATOM     61  ND1 HIS A   4      36.147   2.325  16.887  0.00  0.00    -0.227 NA
ENDBRANCH  56  57
ENDBRANCH   1  56
TORSDOF 21
REMARK  Name = ../refined-set-2016/1z6s/1z6s_pocket.pdb
REMARK  116 active torsions:
REMARK  status: ('A' for Active; 'I' for Inactive)
REMARK    1  A    between atoms: _1  and  _3
REMARK    2  A    between atoms: _3  and  _4
REMARK    3  A    between atoms: _7  and  _9
REMARK    4  A    between atoms: _9  and  _10
REMARK    5  A    between atoms: _9  and  _12
REMARK    6  A    between atoms: _12  and  _13
REMARK    7  A    between atoms: _13  and  _14
REMARK    8  A    between atoms: _14  and  _15
REMARK    9  A    between atoms: _15  and  _16
REMARK   10  A    between atoms: _20  and  _22
REMARK   11  A    between atoms: _22  and  _23
REMARK   12  A    between atoms: _22  and  _25
REMARK   13  A    between atoms: _25  and  _26
REMARK   14  A    between atoms: _32  and  _34
REMARK   15  A    between atoms: _34  and  _35
REMARK   16  A    between atoms: _34  and  _37
REMARK   17  A    between atoms: _37  and  _38
REMARK   18  A    between atoms: _38  and  _39
REMARK   19  A    between atoms: _39  and  _40
REMARK   20  A    between atoms: _49  and  _51
REMARK   21  A    between atoms: _51  and  _52
REMARK   22  A    between atoms: _51  and  _54
REMARK   23  A    between atoms: _54  and  _55
REMARK   24  A    between atoms: _55  and  _56
REMARK   25  A    between atoms: _61  and  _63
REMARK   26  A    between atoms: _63  and  _64
REMARK   27  A    between atoms: _63  and  _66
REMARK   28  A    between atoms: _66  and  _67
REMARK   29  A    between atoms: _72  and  _74
REMARK   30  A    between atoms: _74  and  _75
REMARK   31  A    between atoms: _74  and  _77
REMARK   32  A    between atoms: _77  and  _78
REMARK   33  A    between atoms: _81  and  _83
REMARK   34  A    between atoms: _83  and  _84
REMARK   35  A    between atoms: _83  and  _86
REMARK   36  A    between atoms: _86  and  _87
REMARK   37  A    between atoms: _87  and  _88
REMARK   38  A    between atoms: _88  and  _89
REMARK   39  A    between atoms: _98  and  _100
REMARK   40  A    between atoms: _100  and  _101
REMARK   41  A    between atoms: _100  and  _103
REMARK   42  A    between atoms: _103  and  _104
REMARK   43  A    between atoms: _104  and  _105
REMARK   44  A    between atoms: _105  and  _106
REMARK   45  A    between atoms: _106  and  _107
REMARK   46  A    between atoms: _111  and  _113
REMARK   47  A    between atoms: _113  and  _114
REMARK   48  A    between atoms: _113  and  _116
REMARK   49  A    between atoms: _119  and  _121
REMARK   50  A    between atoms: _121  and  _122
REMARK   51  A    between atoms: _121  and  _124
REMARK   52  A    between atoms: _124  and  _125
REMARK   53  A    between atoms: _130  and  _132
REMARK   54  A    between atoms: _132  and  _133
REMARK   55  A    between atoms: _132  and  _135
REMARK   56  A    between atoms: _135  and  _136
REMARK   57  A    between atoms: _139  and  _141
REMARK   58  A    between atoms: _141  and  _142
REMARK   59  A    between atoms: _141  and  _144
REMARK   60  A    between atoms: _147  and  _149
REMARK   61  A    between atoms: _149  and  _150
REMARK   62  A    between atoms: _153  and  _155
REMARK   63  A    between atoms: _162  and  _165
REMARK   64  A    between atoms: _165  and  _166
REMARK   65  A    between atoms: _166  and  _167
REMARK   66  A    between atoms: _167  and  _168
REMARK   67  A    between atoms: _168  and  _169
REMARK   68  A    between atoms: _175  and  _178
REMARK   69  A    between atoms: _178  and  _179
REMARK   70  A    between atoms: _191  and  _194
REMARK   71  A    between atoms: _194  and  _195
REMARK   72  A    between atoms: _195  and  _196
REMARK   73  A    between atoms: _203  and  _206
REMARK   74  A    between atoms: _206  and  _207
REMARK   75  A    between atoms: _212  and  _215
REMARK   76  A    between atoms: _215  and  _216
REMARK   77  A    between atoms: _223  and  _224
REMARK   78  A    between atoms: _228  and  _230
REMARK   79  A    between atoms: _230  and  _231
REMARK   80  A    between atoms: _230  and  _233
REMARK   81  A    between atoms: _233  and  _234
REMARK   82  A    between atoms: _239  and  _240
REMARK   83  A    between atoms: _242  and  _244
REMARK   84  A    between atoms: _244  and  _245
REMARK   85  A    between atoms: _244  and  _247
REMARK   86  A    between atoms: _250  and  _252
REMARK   87  A    between atoms: _252  and  _253
REMARK   88  A    between atoms: _256  and  _258
REMARK   89  A    between atoms: _258  and  _259
REMARK   90  A    between atoms: _258  and  _261
REMARK   91  A    between atoms: _263  and  _265
REMARK   92  A    between atoms: _265  and  _266
REMARK   93  A    between atoms: _265  and  _268
REMARK   94  A    between atoms: _268  and  _269
REMARK   95  A    between atoms: _269  and  _270
REMARK   96  A    between atoms: _273  and  _275
REMARK   97  A    between atoms: _275  and  _276
REMARK   98  A    between atoms: _275  and  _278
REMARK   99  A    between atoms: _282  and  _283
REMARK  100  A    between atoms: _288  and  _290
REMARK  101  A    between atoms: _290  and  _291
REMARK  102  A    between atoms: _290  and  _293
REMARK  103  A    between atoms: _296  and  _298
REMARK  104  A    between atoms: _298  and  _299
REMARK  105  A    between atoms: _298  and  _301
REMARK  106  A    between atoms: _301  and  _302
REMARK  107  A    between atoms: _307  and  _309
REMARK  108  A    between atoms: _309  and  _310
REMARK  109  A    between atoms: _309  and  _312
REMARK  110  A    between atoms: _312  and  _313
REMARK  111  A    between atoms: _319  and  _321
REMARK  112  A    between atoms: _321  and  _322
REMARK  113  A    between atoms: _321  and  _324
REMARK  114  A    between atoms: _324  and  _325
REMARK  115  A    between atoms: _328  and  _330
REMARK  116  A    between atoms: _330  and  _331
REMARK                            x       y       z     vdW  Elec       q    Type
REMARK                         _______ _______ _______ _____ _____    ______ ____
ROOT
ATOM      1  O   HOH     1      40.526   6.742  20.271  0.00  0.00    +0.000 OA
ENDROOT
TORSDOF 0
REMARK  Name = ../refined-set-2016/1z6s/1z6s_pocket.pdb
REMARK  116 active torsions:
REMARK  status: ('A' for Active; 'I' for Inactive)
REMARK    1  A    between atoms: _1  and  _3
REMARK    2  A    between atoms: _3  and  _4
REMARK    3  A    between atoms: _7  and  _9
REMARK    4  A    between atoms: _9  and  _10
REMARK    5  A    between atoms: _9  and  _12
REMARK    6  A    between atoms: _12  and  _13
REMARK    7  A    between atoms: _13  and  _14
REMARK    8  A    between atoms: _14  and  _15
REMARK    9  A    between atoms: _15  and  _16
REMARK   10  A    between atoms: _20  and  _22
REMARK   11  A    between atoms: _22  and  _23
REMARK   12  A    between atoms: _22  and  _25
REMARK   13  A    between atoms: _25  and  _26
REMARK   14  A    between atoms: _32  and  _34
REMARK   15  A    between atoms: _34  and  _35
REMARK   16  A    between atoms: _34  and  _37
REMARK   17  A    between atoms: _37  and  _38
REMARK   18  A    between atoms: _38  and  _39
REMARK   19  A    between atoms: _39  and  _40
REMARK   20  A    between atoms: _49  and  _51
REMARK   21  A    between atoms: _51  and  _52
REMARK   22  A    between atoms: _51  and  _54
REMARK   23  A    between atoms: _54  and  _55
REMARK   24  A    between atoms: _55  and  _56
REMARK   25  A    between atoms: _61  and  _63
REMARK   26  A    between atoms: _63  and  _64
REMARK   27  A    between atoms: _63  and  _66
REMARK   28  A    between atoms: _66  and  _67
REMARK   29  A    between atoms: _72  and  _74
REMARK   30  A    between atoms: _74  and  _75
REMARK   31  A    between atoms: _74  and  _77
REMARK   32  A    between atoms: _77  and  _78
REMARK   33  A    between atoms: _81  and  _83
REMARK   34  A    between atoms: _83  and  _84
REMARK   35  A    between atoms: _83  and  _86
REMARK   36  A    between atoms: _86  and  _87
REMARK   37  A    between atoms: _87  and  _88
REMARK   38  A    between atoms: _88  and  _89
REMARK   39  A    between atoms: _98  and  _100
REMARK   40  A    between atoms: _100  and  _101
REMARK   41  A    between atoms: _100  and  _103
REMARK   42  A    between atoms: _103  and  _104
REMARK   43  A    between atoms: _104  and  _105
REMARK   44  A    between atoms: _105  and  _106
REMARK   45  A    between atoms: _106  and  _107
REMARK   46  A    between atoms: _111  and  _113
REMARK   47  A    between atoms: _113  and  _114
REMARK   48  A    between atoms: _113  and  _116
REMARK   49  A    between atoms: _119  and  _121
REMARK   50  A    between atoms: _121  and  _122
REMARK   51  A    between atoms: _121  and  _124
REMARK   52  A    between atoms: _124  and  _125
REMARK   53  A    between atoms: _130  and  _132
REMARK   54  A    between atoms: _132  and  _133
REMARK   55  A    between atoms: _132  and  _135
REMARK   56  A    between atoms: _135  and  _136
REMARK   57  A    between atoms: _139  and  _141
REMARK   58  A    between atoms: _141  and  _142
REMARK   59  A    between atoms: _141  and  _144
REMARK   60  A    between atoms: _147  and  _149
REMARK   61  A    between atoms: _149  and  _150
REMARK   62  A    between atoms: _153  and  _155
REMARK   63  A    between atoms: _162  and  _165
REMARK   64  A    between atoms: _165  and  _166
REMARK   65  A    between atoms: _166  and  _167
REMARK   66  A    between atoms: _167  and  _168
REMARK   67  A    between atoms: _168  and  _169
REMARK   68  A    between atoms: _175  and  _178
REMARK   69  A    between atoms: _178  and  _179
REMARK   70  A    between atoms: _191  and  _194
REMARK   71  A    between atoms: _194  and  _195
REMARK   72  A    between atoms: _195  and  _196
REMARK   73  A    between atoms: _203  and  _206
REMARK   74  A    between atoms: _206  and  _207
REMARK   75  A    between atoms: _212  and  _215
REMARK   76  A    between atoms: _215  and  _216
REMARK   77  A    between atoms: _223  and  _224
REMARK   78  A    between atoms: _228  and  _230
REMARK   79  A    between atoms: _230  and  _231
REMARK   80  A    between atoms: _230  and  _233
REMARK   81  A    between atoms: _233  and  _234
REMARK   82  A    between atoms: _239  and  _240
REMARK   83  A    between atoms: _242  and  _244
REMARK   84  A    between atoms: _244  and  _245
REMARK   85  A    between atoms: _244  and  _247
REMARK   86  A    between atoms: _250  and  _252
REMARK   87  A    between atoms: _252  and  _253
REMARK   88  A    between atoms: _256  and  _258
REMARK   89  A    between atoms: _258  and  _259
REMARK   90  A    between atoms: _258  and  _261
REMARK   91  A    between atoms: _263  and  _265
REMARK   92  A    between atoms: _265  and  _266
REMARK   93  A    between atoms: _265  and  _268
REMARK   94  A    between atoms: _268  and  _269
REMARK   95  A    between atoms: _269  and  _270
REMARK   96  A    between atoms: _273  and  _275
REMARK   97  A    between atoms: _275  and  _276
REMARK   98  A    between atoms: _275  and  _278
REMARK   99  A    between atoms: _282  and  _283
REMARK  100  A    between atoms: _288  and  _290
REMARK  101  A    between atoms: _290  and  _291
REMARK  102  A    between atoms: _290  and  _293
REMARK  103  A    between atoms: _296  and  _298
REMARK  104  A    between atoms: _298  and  _299
REMARK  105  A    between atoms: _298  and  _301
REMARK  106  A    between atoms: _301  and  _302
REMARK  107  A    between atoms: _307  and  _309
REMARK  108  A    between atoms: _309  and  _310
REMARK  109  A    between atoms: _309  and  _312
REMARK  110  A    between atoms: _312  and  _313
REMARK  111  A    between atoms: _319  and  _321
REMARK  112  A    between atoms: _321  and  _322
REMARK  113  A    between atoms: _321  and  _324
REMARK  114  A    between atoms: _324  and  _325
REMARK  115  A    between atoms: _328  and  _330
REMARK  116  A    between atoms: _330  and  _331
REMARK                            x       y       z     vdW  Elec       q    Type
REMARK                         _______ _______ _______ _____ _____    ______ ____
ROOT
ATOM      1  O   HOH     1      31.041   7.774  26.250  0.00  0.00    +0.000 OA
ENDROOT
TORSDOF 0
REMARK  Name = ../refined-set-2016/1z6s/1z6s_pocket.pdb
REMARK  116 active torsions:
REMARK  status: ('A' for Active; 'I' for Inactive)
REMARK    1  A    between atoms: _1  and  _3
REMARK    2  A    between atoms: _3  and  _4
REMARK    3  A    between atoms: _7  and  _9
REMARK    4  A    between atoms: _9  and  _10
REMARK    5  A    between atoms: _9  and  _12
REMARK    6  A    between atoms: _12  and  _13
REMARK    7  A    between atoms: _13  and  _14
REMARK    8  A    between atoms: _14  and  _15
REMARK    9  A    between atoms: _15  and  _16
REMARK   10  A    between atoms: _20  and  _22
REMARK   11  A    between atoms: _22  and  _23
REMARK   12  A    between atoms: _22  and  _25
REMARK   13  A    between atoms: _25  and  _26
REMARK   14  A    between atoms: _32  and  _34
REMARK   15  A    between atoms: _34  and  _35
REMARK   16  A    between atoms: _34  and  _37
REMARK   17  A    between atoms: _37  and  _38
REMARK   18  A    between atoms: _38  and  _39
REMARK   19  A    between atoms: _39  and  _40
REMARK   20  A    between atoms: _49  and  _51
REMARK   21  A    between atoms: _51  and  _52
REMARK   22  A    between atoms: _51  and  _54
REMARK   23  A    between atoms: _54  and  _55
REMARK   24  A    between atoms: _55  and  _56
REMARK   25  A    between atoms: _61  and  _63
REMARK   26  A    between atoms: _63  and  _64
REMARK   27  A    between atoms: _63  and  _66
REMARK   28  A    between atoms: _66  and  _67
REMARK   29  A    between atoms: _72  and  _74
REMARK   30  A    between atoms: _74  and  _75
REMARK   31  A    between atoms: _74  and  _77
REMARK   32  A    between atoms: _77  and  _78
REMARK   33  A    between atoms: _81  and  _83
REMARK   34  A    between atoms: _83  and  _84
REMARK   35  A    between atoms: _83  and  _86
REMARK   36  A    between atoms: _86  and  _87
REMARK   37  A    between atoms: _87  and  _88
REMARK   38  A    between atoms: _88  and  _89
REMARK   39  A    between atoms: _98  and  _100
REMARK   40  A    between atoms: _100  and  _101
REMARK   41  A    between atoms: _100  and  _103
REMARK   42  A    between atoms: _103  and  _104
REMARK   43  A    between atoms: _104  and  _105
REMARK   44  A    between atoms: _105  and  _106
REMARK   45  A    between atoms: _106  and  _107
REMARK   46  A    between atoms: _111  and  _113
REMARK   47  A    between atoms: _113  and  _114
REMARK   48  A    between atoms: _113  and  _116
REMARK   49  A    between atoms: _119  and  _121
REMARK   50  A    between atoms: _121  and  _122
REMARK   51  A    between atoms: _121  and  _124
REMARK   52  A    between atoms: _124  and  _125
REMARK   53  A    between atoms: _130  and  _132
REMARK   54  A    between atoms: _132  and  _133
REMARK   55  A    between atoms: _132  and  _135
REMARK   56  A    between atoms: _135  and  _136
REMARK   57  A    between atoms: _139  and  _141
REMARK   58  A    between atoms: _141  and  _142
REMARK   59  A    between atoms: _141  and  _144
REMARK   60  A    between atoms: _147  and  _149
REMARK   61  A    between atoms: _149  and  _150
REMARK   62  A    between atoms: _153  and  _155
REMARK   63  A    between atoms: _162  and  _165
REMARK   64  A    between atoms: _165  and  _166
REMARK   65  A    between atoms: _166  and  _167
REMARK   66  A    between atoms: _167  and  _168
REMARK   67  A    between atoms: _168  and  _169
REMARK   68  A    between atoms: _175  and  _178
REMARK   69  A    between atoms: _178  and  _179
REMARK   70  A    between atoms: _191  and  _194
REMARK   71  A    between atoms: _194  and  _195
REMARK   72  A    between atoms: _195  and  _196
REMARK   73  A    between atoms: _203  and  _206
REMARK   74  A    between atoms: _206  and  _207
REMARK   75  A    between atoms: _212  and  _215
REMARK   76  A    between atoms: _215  and  _216
REMARK   77  A    between atoms: _223  and  _224
REMARK   78  A    between atoms: _228  and  _230
REMARK   79  A    between atoms: _230  and  _231
REMARK   80  A    between atoms: _230  and  _233
REMARK   81  A    between atoms: _233  and  _234
REMARK   82  A    between atoms: _239  and  _240
REMARK   83  A    between atoms: _242  and  _244
REMARK   84  A    between atoms: _244  and  _245
REMARK   85  A    between atoms: _244  and  _247
REMARK   86  A    between atoms: _250  and  _252
REMARK   87  A    between atoms: _252  and  _253
REMARK   88  A    between atoms: _256  and  _258
REMARK   89  A    between atoms: _258  and  _259
REMARK   90  A    between atoms: _258  and  _261
REMARK   91  A    between atoms: _263  and  _265
REMARK   92  A    between atoms: _265  and  _266
REMARK   93  A    between atoms: _265  and  _268
REMARK   94  A    between atoms: _268  and  _269
REMARK   95  A    between atoms: _269  and  _270
REMARK   96  A    between atoms: _273  and  _275
REMARK   97  A    between atoms: _275  and  _276
REMARK   98  A    between atoms: _275  and  _278
REMARK   99  A    between atoms: _282  and  _283
REMARK  100  A    between atoms: _288  and  _290
REMARK  101  A    between atoms: _290  and  _291
REMARK  102  A    between atoms: _290  and  _293
REMARK  103  A    between atoms: _296  and  _298
REMARK  104  A    between atoms: _298  and  _299
REMARK  105  A    between atoms: _298  and  _301
REMARK  106  A    between atoms: _301  and  _302
REMARK  107  A    between atoms: _307  and  _309
REMARK  108  A    between atoms: _309  and  _310
REMARK  109  A    between atoms: _309  and  _312
REMARK  110  A    between atoms: _312  and  _313
REMARK  111  A    between atoms: _319  and  _321
REMARK  112  A    between atoms: _321  and  _322
REMARK  113  A    between atoms: _321  and  _324
REMARK  114  A    between atoms: _324  and  _325
REMARK  115  A    between atoms: _328  and  _330
REMARK  116  A    between atoms: _330  and  _331
REMARK                            x       y       z     vdW  Elec       q    Type
REMARK                         _______ _______ _______ _____ _____    ______ ____
ROOT
ATOM      1  O   HOH     1      37.306  -0.368  21.551  0.00  0.00    +0.000 OA
ENDROOT
TORSDOF 0
REMARK  Name = ../refined-set-2016/1z6s/1z6s_pocket.pdb
REMARK  116 active torsions:
REMARK  status: ('A' for Active; 'I' for Inactive)
REMARK    1  A    between atoms: _1  and  _3
REMARK    2  A    between atoms: _3  and  _4
REMARK    3  A    between atoms: _7  and  _9
REMARK    4  A    between atoms: _9  and  _10
REMARK    5  A    between atoms: _9  and  _12
REMARK    6  A    between atoms: _12  and  _13
REMARK    7  A    between atoms: _13  and  _14
REMARK    8  A    between atoms: _14  and  _15
REMARK    9  A    between atoms: _15  and  _16
REMARK   10  A    between atoms: _20  and  _22
REMARK   11  A    between atoms: _22  and  _23
REMARK   12  A    between atoms: _22  and  _25
REMARK   13  A    between atoms: _25  and  _26
REMARK   14  A    between atoms: _32  and  _34
REMARK   15  A    between atoms: _34  and  _35
REMARK   16  A    between atoms: _34  and  _37
REMARK   17  A    between atoms: _37  and  _38
REMARK   18  A    between atoms: _38  and  _39
REMARK   19  A    between atoms: _39  and  _40
REMARK   20  A    between atoms: _49  and  _51
REMARK   21  A    between atoms: _51  and  _52
REMARK   22  A    between atoms: _51  and  _54
REMARK   23  A    between atoms: _54  and  _55
REMARK   24  A    between atoms: _55  and  _56
REMARK   25  A    between atoms: _61  and  _63
REMARK   26  A    between atoms: _63  and  _64
REMARK   27  A    between atoms: _63  and  _66
REMARK   28  A    between atoms: _66  and  _67
REMARK   29  A    between atoms: _72  and  _74
REMARK   30  A    between atoms: _74  and  _75
REMARK   31  A    between atoms: _74  and  _77
REMARK   32  A    between atoms: _77  and  _78
REMARK   33  A    between atoms: _81  and  _83
REMARK   34  A    between atoms: _83  and  _84
REMARK   35  A    between atoms: _83  and  _86
REMARK   36  A    between atoms: _86  and  _87
REMARK   37  A    between atoms: _87  and  _88
REMARK   38  A    between atoms: _88  and  _89
REMARK   39  A    between atoms: _98  and  _100
REMARK   40  A    between atoms: _100  and  _101
REMARK   41  A    between atoms: _100  and  _103
REMARK   42  A    between atoms: _103  and  _104
REMARK   43  A    between atoms: _104  and  _105
REMARK   44  A    between atoms: _105  and  _106
REMARK   45  A    between atoms: _106  and  _107
REMARK   46  A    between atoms: _111  and  _113
REMARK   47  A    between atoms: _113  and  _114
REMARK   48  A    between atoms: _113  and  _116
REMARK   49  A    between atoms: _119  and  _121
REMARK   50  A    between atoms: _121  and  _122
REMARK   51  A    between atoms: _121  and  _124
REMARK   52  A    between atoms: _124  and  _125
REMARK   53  A    between atoms: _130  and  _132
REMARK   54  A    between atoms: _132  and  _133
REMARK   55  A    between atoms: _132  and  _135
REMARK   56  A    between atoms: _135  and  _136
REMARK   57  A    between atoms: _139  and  _141
REMARK   58  A    between atoms: _141  and  _142
REMARK   59  A    between atoms: _141  and  _144
REMARK   60  A    between atoms: _147  and  _149
REMARK   61  A    between atoms: _149  and  _150
REMARK   62  A    between atoms: _153  and  _155
REMARK   63  A    between atoms: _162  and  _165
REMARK   64  A    between atoms: _165  and  _166
REMARK   65  A    between atoms: _166  and  _167
REMARK   66  A    between atoms: _167  and  _168
REMARK   67  A    between atoms: _168  and  _169
REMARK   68  A    between atoms: _175  and  _178
REMARK   69  A    between atoms: _178  and  _179
REMARK   70  A    between atoms: _191  and  _194
REMARK   71  A    between atoms: _194  and  _195
REMARK   72  A    between atoms: _195  and  _196
REMARK   73  A    between atoms: _203  and  _206
REMARK   74  A    between atoms: _206  and  _207
REMARK   75  A    between atoms: _212  and  _215
REMARK   76  A    between atoms: _215  and  _216
REMARK   77  A    between atoms: _223  and  _224
REMARK   78  A    between atoms: _228  and  _230
REMARK   79  A    between atoms: _230  and  _231
REMARK   80  A    between atoms: _230  and  _233
REMARK   81  A    between atoms: _233  and  _234
REMARK   82  A    between atoms: _239  and  _240
REMARK   83  A    between atoms: _242  and  _244
REMARK   84  A    between atoms: _244  and  _245
REMARK   85  A    between atoms: _244  and  _247
REMARK   86  A    between atoms: _250  and  _252
REMARK   87  A    between atoms: _252  and  _253
REMARK   88  A    between atoms: _256  and  _258
REMARK   89  A    between atoms: _258  and  _259
REMARK   90  A    between atoms: _258  and  _261
REMARK   91  A    between atoms: _263  and  _265
REMARK   92  A    between atoms: _265  and  _266
REMARK   93  A    between atoms: _265  and  _268
REMARK   94  A    between atoms: _268  and  _269
REMARK   95  A    between atoms: _269  and  _270
REMARK   96  A    between atoms: _273  and  _275
REMARK   97  A    between atoms: _275  and  _276
REMARK   98  A    between atoms: _275  and  _278
REMARK   99  A    between atoms: _282  and  _283
REMARK  100  A    between atoms: _288  and  _290
REMARK  101  A    between atoms: _290  and  _291
REMARK  102  A    between atoms: _290  and  _293
REMARK  103  A    between atoms: _296  and  _298
REMARK  104  A    between atoms: _298  and  _299
REMARK  105  A    between atoms: _298  and  _301
REMARK  106  A    between atoms: _301  and  _302
REMARK  107  A    between atoms: _307  and  _309
REMARK  108  A    between atoms: _309  and  _310
REMARK  109  A    between atoms: _309  and  _312
REMARK  110  A    between atoms: _312  and  _313
REMARK  111  A    between atoms: _319  and  _321
REMARK  112  A    between atoms: _321  and  _322
REMARK  113  A    between atoms: _321  and  _324
REMARK  114  A    between atoms: _324  and  _325
REMARK  115  A    between atoms: _328  and  _330
REMARK  116  A    between atoms: _330  and  _331
REMARK                            x       y       z     vdW  Elec       q    Type
REMARK                         _______ _______ _______ _____ _____    ______ ____
ROOT
ATOM      1  O   HOH     1      34.496   8.482  14.215  0.00  0.00    +0.000 OA
ENDROOT
TORSDOF 0
REMARK  Name = ../refined-set-2016/1z6s/1z6s_pocket.pdb
REMARK  116 active torsions:
REMARK  status: ('A' for Active; 'I' for Inactive)
REMARK    1  A    between atoms: _1  and  _3
REMARK    2  A    between atoms: _3  and  _4
REMARK    3  A    between atoms: _7  and  _9
REMARK    4  A    between atoms: _9  and  _10
REMARK    5  A    between atoms: _9  and  _12
REMARK    6  A    between atoms: _12  and  _13
REMARK    7  A    between atoms: _13  and  _14
REMARK    8  A    between atoms: _14  and  _15
REMARK    9  A    between atoms: _15  and  _16
REMARK   10  A    between atoms: _20  and  _22
REMARK   11  A    between atoms: _22  and  _23
REMARK   12  A    between atoms: _22  and  _25
REMARK   13  A    between atoms: _25  and  _26
REMARK   14  A    between atoms: _32  and  _34
REMARK   15  A    between atoms: _34  and  _35
REMARK   16  A    between atoms: _34  and  _37
REMARK   17  A    between atoms: _37  and  _38
REMARK   18  A    between atoms: _38  and  _39
REMARK   19  A    between atoms: _39  and  _40
REMARK   20  A    between atoms: _49  and  _51
REMARK   21  A    between atoms: _51  and  _52
REMARK   22  A    between atoms: _51  and  _54
REMARK   23  A    between atoms: _54  and  _55
REMARK   24  A    between atoms: _55  and  _56
REMARK   25  A    between atoms: _61  and  _63
REMARK   26  A    between atoms: _63  and  _64
REMARK   27  A    between atoms: _63  and  _66
REMARK   28  A    between atoms: _66  and  _67
REMARK   29  A    between atoms: _72  and  _74
REMARK   30  A    between atoms: _74  and  _75
REMARK   31  A    between atoms: _74  and  _77
REMARK   32  A    between atoms: _77  and  _78
REMARK   33  A    between atoms: _81  and  _83
REMARK   34  A    between atoms: _83  and  _84
REMARK   35  A    between atoms: _83  and  _86
REMARK   36  A    between atoms: _86  and  _87
REMARK   37  A    between atoms: _87  and  _88
REMARK   38  A    between atoms: _88  and  _89
REMARK   39  A    between atoms: _98  and  _100
REMARK   40  A    between atoms: _100  and  _101
REMARK   41  A    between atoms: _100  and  _103
REMARK   42  A    between atoms: _103  and  _104
REMARK   43  A    between atoms: _104  and  _105
REMARK   44  A    between atoms: _105  and  _106
REMARK   45  A    between atoms: _106  and  _107
REMARK   46  A    between atoms: _111  and  _113
REMARK   47  A    between atoms: _113  and  _114
REMARK   48  A    between atoms: _113  and  _116
REMARK   49  A    between atoms: _119  and  _121
REMARK   50  A    between atoms: _121  and  _122
REMARK   51  A    between atoms: _121  and  _124
REMARK   52  A    between atoms: _124  and  _125
REMARK   53  A    between atoms: _130  and  _132
REMARK   54  A    between atoms: _132  and  _133
REMARK   55  A    between atoms: _132  and  _135
REMARK   56  A    between atoms: _135  and  _136
REMARK   57  A    between atoms: _139  and  _141
REMARK   58  A    between atoms: _141  and  _142
REMARK   59  A    between atoms: _141  and  _144
REMARK   60  A    between atoms: _147  and  _149
REMARK   61  A    between atoms: _149  and  _150
REMARK   62  A    between atoms: _153  and  _155
REMARK   63  A    between atoms: _162  and  _165
REMARK   64  A    between atoms: _165  and  _166
REMARK   65  A    between atoms: _166  and  _167
REMARK   66  A    between atoms: _167  and  _168
REMARK   67  A    between atoms: _168  and  _169
REMARK   68  A    between atoms: _175  and  _178
REMARK   69  A    between atoms: _178  and  _179
REMARK   70  A    between atoms: _191  and  _194
REMARK   71  A    between atoms: _194  and  _195
REMARK   72  A    between atoms: _195  and  _196
REMARK   73  A    between atoms: _203  and  _206
REMARK   74  A    between atoms: _206  and  _207
REMARK   75  A    between atoms: _212  and  _215
REMARK   76  A    between atoms: _215  and  _216
REMARK   77  A    between atoms: _223  and  _224
REMARK   78  A    between atoms: _228  and  _230
REMARK   79  A    between atoms: _230  and  _231
REMARK   80  A    between atoms: _230  and  _233
REMARK   81  A    between atoms: _233  and  _234
REMARK   82  A    between atoms: _239  and  _240
REMARK   83  A    between atoms: _242  and  _244
REMARK   84  A    between atoms: _244  and  _245
REMARK   85  A    between atoms: _244  and  _247
REMARK   86  A    between atoms: _250  and  _252
REMARK   87  A    between atoms: _252  and  _253
REMARK   88  A    between atoms: _256  and  _258
REMARK   89  A    between atoms: _258  and  _259
REMARK   90  A    between atoms: _258  and  _261
REMARK   91  A    between atoms: _263  and  _265
REMARK   92  A    between atoms: _265  and  _266
REMARK   93  A    between atoms: _265  and  _268
REMARK   94  A    between atoms: _268  and  _269
REMARK   95  A    between atoms: _269  and  _270
REMARK   96  A    between atoms: _273  and  _275
REMARK   97  A    between atoms: _275  and  _276
REMARK   98  A    between atoms: _275  and  _278
REMARK   99  A    between atoms: _282  and  _283
REMARK  100  A    between atoms: _288  and  _290
REMARK  101  A    between atoms: _290  and  _291
REMARK  102  A    between atoms: _290  and  _293
REMARK  103  A    between atoms: _296  and  _298
REMARK  104  A    between atoms: _298  and  _299
REMARK  105  A    between atoms: _298  and  _301
REMARK  106  A    between atoms: _301  and  _302
REMARK  107  A    between atoms: _307  and  _309
REMARK  108  A    between atoms: _309  and  _310
REMARK  109  A    between atoms: _309  and  _312
REMARK  110  A    between atoms: _312  and  _313
REMARK  111  A    between atoms: _319  and  _321
REMARK  112  A    between atoms: _321  and  _322
REMARK  113  A    between atoms: _321  and  _324
REMARK  114  A    between atoms: _324  and  _325
REMARK  115  A    between atoms: _328  and  _330
REMARK  116  A    between atoms: _330  and  _331
REMARK                            x       y       z     vdW  Elec       q    Type
REMARK                         _______ _______ _______ _____ _____    ______ ____
ROOT
ATOM      1  O   HOH     1      34.853  -1.372  10.900  0.00  0.00    +0.000 OA
ENDROOT
TORSDOF 0
REMARK  Name = ../refined-set-2016/1z6s/1z6s_pocket.pdb
REMARK  116 active torsions:
REMARK  status: ('A' for Active; 'I' for Inactive)
REMARK    1  A    between atoms: _1  and  _3
REMARK    2  A    between atoms: _3  and  _4
REMARK    3  A    between atoms: _7  and  _9
REMARK    4  A    between atoms: _9  and  _10
REMARK    5  A    between atoms: _9  and  _12
REMARK    6  A    between atoms: _12  and  _13
REMARK    7  A    between atoms: _13  and  _14
REMARK    8  A    between atoms: _14  and  _15
REMARK    9  A    between atoms: _15  and  _16
REMARK   10  A    between atoms: _20  and  _22
REMARK   11  A    between atoms: _22  and  _23
REMARK   12  A    between atoms: _22  and  _25
REMARK   13  A    between atoms: _25  and  _26
REMARK   14  A    between atoms: _32  and  _34
REMARK   15  A    between atoms: _34  and  _35
REMARK   16  A    between atoms: _34  and  _37
REMARK   17  A    between atoms: _37  and  _38
REMARK   18  A    between atoms: _38  and  _39
REMARK   19  A    between atoms: _39  and  _40
REMARK   20  A    between atoms: _49  and  _51
REMARK   21  A    between atoms: _51  and  _52
REMARK   22  A    between atoms: _51  and  _54
REMARK   23  A    between atoms: _54  and  _55
REMARK   24  A    between atoms: _55  and  _56
REMARK   25  A    between atoms: _61  and  _63
REMARK   26  A    between atoms: _63  and  _64
REMARK   27  A    between atoms: _63  and  _66
REMARK   28  A    between atoms: _66  and  _67
REMARK   29  A    between atoms: _72  and  _74
REMARK   30  A    between atoms: _74  and  _75
REMARK   31  A    between atoms: _74  and  _77
REMARK   32  A    between atoms: _77  and  _78
REMARK   33  A    between atoms: _81  and  _83
REMARK   34  A    between atoms: _83  and  _84
REMARK   35  A    between atoms: _83  and  _86
REMARK   36  A    between atoms: _86  and  _87
REMARK   37  A    between atoms: _87  and  _88
REMARK   38  A    between atoms: _88  and  _89
REMARK   39  A    between atoms: _98  and  _100
REMARK   40  A    between atoms: _100  and  _101
REMARK   41  A    between atoms: _100  and  _103
REMARK   42  A    between atoms: _103  and  _104
REMARK   43  A    between atoms: _104  and  _105
REMARK   44  A    between atoms: _105  and  _106
REMARK   45  A    between atoms: _106  and  _107
REMARK   46  A    between atoms: _111  and  _113
REMARK   47  A    between atoms: _113  and  _114
REMARK   48  A    between atoms: _113  and  _116
REMARK   49  A    between atoms: _119  and  _121
REMARK   50  A    between atoms: _121  and  _122
REMARK   51  A    between atoms: _121  and  _124
REMARK   52  A    between atoms: _124  and  _125
REMARK   53  A    between atoms: _130  and  _132
REMARK   54  A    between atoms: _132  and  _133
REMARK   55  A    between atoms: _132  and  _135
REMARK   56  A    between atoms: _135  and  _136
REMARK   57  A    between atoms: _139  and  _141
REMARK   58  A    between atoms: _141  and  _142
REMARK   59  A    between atoms: _141  and  _144
REMARK   60  A    between atoms: _147  and  _149
REMARK   61  A    between atoms: _149  and  _150
REMARK   62  A    between atoms: _153  and  _155
REMARK   63  A    between atoms: _162  and  _165
REMARK   64  A    between atoms: _165  and  _166
REMARK   65  A    between atoms: _166  and  _167
REMARK   66  A    between atoms: _167  and  _168
REMARK   67  A    between atoms: _168  and  _169
REMARK   68  A    between atoms: _175  and  _178
REMARK   69  A    between atoms: _178  and  _179
REMARK   70  A    between atoms: _191  and  _194
REMARK   71  A    between atoms: _194  and  _195
REMARK   72  A    between atoms: _195  and  _196
REMARK   73  A    between atoms: _203  and  _206
REMARK   74  A    between atoms: _206  and  _207
REMARK   75  A    between atoms: _212  and  _215
REMARK   76  A    between atoms: _215  and  _216
REMARK   77  A    between atoms: _223  and  _224
REMARK   78  A    between atoms: _228  and  _230
REMARK   79  A    between atoms: _230  and  _231
REMARK   80  A    between atoms: _230  and  _233
REMARK   81  A    between atoms: _233  and  _234
REMARK   82  A    between atoms: _239  and  _240
REMARK   83  A    between atoms: _242  and  _244
REMARK   84  A    between atoms: _244  and  _245
REMARK   85  A    between atoms: _244  and  _247
REMARK   86  A    between atoms: _250  and  _252
REMARK   87  A    between atoms: _252  and  _253
REMARK   88  A    between atoms: _256  and  _258
REMARK   89  A    between atoms: _258  and  _259
REMARK   90  A    between atoms: _258  and  _261
REMARK   91  A    between atoms: _263  and  _265
REMARK   92  A    between atoms: _265  and  _266
REMARK   93  A    between atoms: _265  and  _268
REMARK   94  A    between atoms: _268  and  _269
REMARK   95  A    between atoms: _269  and  _270
REMARK   96  A    between atoms: _273  and  _275
REMARK   97  A    between atoms: _275  and  _276
REMARK   98  A    between atoms: _275  and  _278
REMARK   99  A    between atoms: _282  and  _283
REMARK  100  A    between atoms: _288  and  _290
REMARK  101  A    between atoms: _290  and  _291
REMARK  102  A    between atoms: _290  and  _293
REMARK  103  A    between atoms: _296  and  _298
REMARK  104  A    between atoms: _298  and  _299
REMARK  105  A    between atoms: _298  and  _301
REMARK  106  A    between atoms: _301  and  _302
REMARK  107  A    between atoms: _307  and  _309
REMARK  108  A    between atoms: _309  and  _310
REMARK  109  A    between atoms: _309  and  _312
REMARK  110  A    between atoms: _312  and  _313
REMARK  111  A    between atoms: _319  and  _321
REMARK  112  A    between atoms: _321  and  _322
REMARK  113  A    between atoms: _321  and  _324
REMARK  114  A    between atoms: _324  and  _325
REMARK  115  A    between atoms: _328  and  _330
REMARK  116  A    between atoms: _330  and  _331
REMARK                            x       y       z     vdW  Elec       q    Type
REMARK                         _______ _______ _______ _____ _____    ______ ____
ROOT
ATOM      1  O   HOH     1      34.102   5.886  12.680  0.00  0.00    +0.000 OA
ENDROOT
TORSDOF 0
REMARK  Name = ../refined-set-2016/1z6s/1z6s_pocket.pdb
REMARK  116 active torsions:
REMARK  status: ('A' for Active; 'I' for Inactive)
REMARK    1  A    between atoms: _1  and  _3
REMARK    2  A    between atoms: _3  and  _4
REMARK    3  A    between atoms: _7  and  _9
REMARK    4  A    between atoms: _9  and  _10
REMARK    5  A    between atoms: _9  and  _12
REMARK    6  A    between atoms: _12  and  _13
REMARK    7  A    between atoms: _13  and  _14
REMARK    8  A    between atoms: _14  and  _15
REMARK    9  A    between atoms: _15  and  _16
REMARK   10  A    between atoms: _20  and  _22
REMARK   11  A    between atoms: _22  and  _23
REMARK   12  A    between atoms: _22  and  _25
REMARK   13  A    between atoms: _25  and  _26
REMARK   14  A    between atoms: _32  and  _34
REMARK   15  A    between atoms: _34  and  _35
REMARK   16  A    between atoms: _34  and  _37
REMARK   17  A    between atoms: _37  and  _38
REMARK   18  A    between atoms: _38  and  _39
REMARK   19  A    between atoms: _39  and  _40
REMARK   20  A    between atoms: _49  and  _51
REMARK   21  A    between atoms: _51  and  _52
REMARK   22  A    between atoms: _51  and  _54
REMARK   23  A    between atoms: _54  and  _55
REMARK   24  A    between atoms: _55  and  _56
REMARK   25  A    between atoms: _61  and  _63
REMARK   26  A    between atoms: _63  and  _64
REMARK   27  A    between atoms: _63  and  _66
REMARK   28  A    between atoms: _66  and  _67
REMARK   29  A    between atoms: _72  and  _74
REMARK   30  A    between atoms: _74  and  _75
REMARK   31  A    between atoms: _74  and  _77
REMARK   32  A    between atoms: _77  and  _78
REMARK   33  A    between atoms: _81  and  _83
REMARK   34  A    between atoms: _83  and  _84
REMARK   35  A    between atoms: _83  and  _86
REMARK   36  A    between atoms: _86  and  _87
REMARK   37  A    between atoms: _87  and  _88
REMARK   38  A    between atoms: _88  and  _89
REMARK   39  A    between atoms: _98  and  _100
REMARK   40  A    between atoms: _100  and  _101
REMARK   41  A    between atoms: _100  and  _103
REMARK   42  A    between atoms: _103  and  _104
REMARK   43  A    between atoms: _104  and  _105
REMARK   44  A    between atoms: _105  and  _106
REMARK   45  A    between atoms: _106  and  _107
REMARK   46  A    between atoms: _111  and  _113
REMARK   47  A    between atoms: _113  and  _114
REMARK   48  A    between atoms: _113  and  _116
REMARK   49  A    between atoms: _119  and  _121
REMARK   50  A    between atoms: _121  and  _122
REMARK   51  A    between atoms: _121  and  _124
REMARK   52  A    between atoms: _124  and  _125
REMARK   53  A    between atoms: _130  and  _132
REMARK   54  A    between atoms: _132  and  _133
REMARK   55  A    between atoms: _132  and  _135
REMARK   56  A    between atoms: _135  and  _136
REMARK   57  A    between atoms: _139  and  _141
REMARK   58  A    between atoms: _141  and  _142
REMARK   59  A    between atoms: _141  and  _144
REMARK   60  A    between atoms: _147  and  _149
REMARK   61  A    between atoms: _149  and  _150
REMARK   62  A    between atoms: _153  and  _155
REMARK   63  A    between atoms: _162  and  _165
REMARK   64  A    between atoms: _165  and  _166
REMARK   65  A    between atoms: _166  and  _167
REMARK   66  A    between atoms: _167  and  _168
REMARK   67  A    between atoms: _168  and  _169
REMARK   68  A    between atoms: _175  and  _178
REMARK   69  A    between atoms: _178  and  _179
REMARK   70  A    between atoms: _191  and  _194
REMARK   71  A    between atoms: _194  and  _195
REMARK   72  A    between atoms: _195  and  _196
REMARK   73  A    between atoms: _203  and  _206
REMARK   74  A    between atoms: _206  and  _207
REMARK   75  A    between atoms: _212  and  _215
REMARK   76  A    between atoms: _215  and  _216
REMARK   77  A    between atoms: _223  and  _224
REMARK   78  A    between atoms: _228  and  _230
REMARK   79  A    between atoms: _230  and  _231
REMARK   80  A    between atoms: _230  and  _233
REMARK   81  A    between atoms: _233  and  _234
REMARK   82  A    between atoms: _239  and  _240
REMARK   83  A    between atoms: _242  and  _244
REMARK   84  A    between atoms: _244  and  _245
REMARK   85  A    between atoms: _244  and  _247
REMARK   86  A    between atoms: _250  and  _252
REMARK   87  A    between atoms: _252  and  _253
REMARK   88  A    between atoms: _256  and  _258
REMARK   89  A    between atoms: _258  and  _259
REMARK   90  A    between atoms: _258  and  _261
REMARK   91  A    between atoms: _263  and  _265
REMARK   92  A    between atoms: _265  and  _266
REMARK   93  A    between atoms: _265  and  _268
REMARK   94  A    between atoms: _268  and  _269
REMARK   95  A    between atoms: _269  and  _270
REMARK   96  A    between atoms: _273  and  _275
REMARK   97  A    between atoms: _275  and  _276
REMARK   98  A    between atoms: _275  and  _278
REMARK   99  A    between atoms: _282  and  _283
REMARK  100  A    between atoms: _288  and  _290
REMARK  101  A    between atoms: _290  and  _291
REMARK  102  A    between atoms: _290  and  _293
REMARK  103  A    between atoms: _296  and  _298
REMARK  104  A    between atoms: _298  and  _299
REMARK  105  A    between atoms: _298  and  _301
REMARK  106  A    between atoms: _301  and  _302
REMARK  107  A    between atoms: _307  and  _309
REMARK  108  A    between atoms: _309  and  _310
REMARK  109  A    between atoms: _309  and  _312
REMARK  110  A    between atoms: _312  and  _313
REMARK  111  A    between atoms: _319  and  _321
REMARK  112  A    between atoms: _321  and  _322
REMARK  113  A    between atoms: _321  and  _324
REMARK  114  A    between atoms: _324  and  _325
REMARK  115  A    between atoms: _328  and  _330
REMARK  116  A    between atoms: _330  and  _331
REMARK                            x       y       z     vdW  Elec       q    Type
REMARK                         _______ _______ _______ _____ _____    ______ ____
ROOT
ATOM      1  O   HOH     1      39.509  -0.957  19.923  0.00  0.00    +0.000 OA
ENDROOT
TORSDOF 0
REMARK  Name = ../refined-set-2016/1z6s/1z6s_pocket.pdb
REMARK  116 active torsions:
REMARK  status: ('A' for Active; 'I' for Inactive)
REMARK    1  A    between atoms: _1  and  _3
REMARK    2  A    between atoms: _3  and  _4
REMARK    3  A    between atoms: _7  and  _9
REMARK    4  A    between atoms: _9  and  _10
REMARK    5  A    between atoms: _9  and  _12
REMARK    6  A    between atoms: _12  and  _13
REMARK    7  A    between atoms: _13  and  _14
REMARK    8  A    between atoms: _14  and  _15
REMARK    9  A    between atoms: _15  and  _16
REMARK   10  A    between atoms: _20  and  _22
REMARK   11  A    between atoms: _22  and  _23
REMARK   12  A    between atoms: _22  and  _25
REMARK   13  A    between atoms: _25  and  _26
REMARK   14  A    between atoms: _32  and  _34
REMARK   15  A    between atoms: _34  and  _35
REMARK   16  A    between atoms: _34  and  _37
REMARK   17  A    between atoms: _37  and  _38
REMARK   18  A    between atoms: _38  and  _39
REMARK   19  A    between atoms: _39  and  _40
REMARK   20  A    between atoms: _49  and  _51
REMARK   21  A    between atoms: _51  and  _52
REMARK   22  A    between atoms: _51  and  _54
REMARK   23  A    between atoms: _54  and  _55
REMARK   24  A    between atoms: _55  and  _56
REMARK   25  A    between atoms: _61  and  _63
REMARK   26  A    between atoms: _63  and  _64
REMARK   27  A    between atoms: _63  and  _66
REMARK   28  A    between atoms: _66  and  _67
REMARK   29  A    between atoms: _72  and  _74
REMARK   30  A    between atoms: _74  and  _75
REMARK   31  A    between atoms: _74  and  _77
REMARK   32  A    between atoms: _77  and  _78
REMARK   33  A    between atoms: _81  and  _83
REMARK   34  A    between atoms: _83  and  _84
REMARK   35  A    between atoms: _83  and  _86
REMARK   36  A    between atoms: _86  and  _87
REMARK   37  A    between atoms: _87  and  _88
REMARK   38  A    between atoms: _88  and  _89
REMARK   39  A    between atoms: _98  and  _100
REMARK   40  A    between atoms: _100  and  _101
REMARK   41  A    between atoms: _100  and  _103
REMARK   42  A    between atoms: _103  and  _104
REMARK   43  A    between atoms: _104  and  _105
REMARK   44  A    between atoms: _105  and  _106
REMARK   45  A    between atoms: _106  and  _107
REMARK   46  A    between atoms: _111  and  _113
REMARK   47  A    between atoms: _113  and  _114
REMARK   48  A    between atoms: _113  and  _116
REMARK   49  A    between atoms: _119  and  _121
REMARK   50  A    between atoms: _121  and  _122
REMARK   51  A    between atoms: _121  and  _124
REMARK   52  A    between atoms: _124  and  _125
REMARK   53  A    between atoms: _130  and  _132
REMARK   54  A    between atoms: _132  and  _133
REMARK   55  A    between atoms: _132  and  _135
REMARK   56  A    between atoms: _135  and  _136
REMARK   57  A    between atoms: _139  and  _141
REMARK   58  A    between atoms: _141  and  _142
REMARK   59  A    between atoms: _141  and  _144
REMARK   60  A    between atoms: _147  and  _149
REMARK   61  A    between atoms: _149  and  _150
REMARK   62  A    between atoms: _153  and  _155
REMARK   63  A    between atoms: _162  and  _165
REMARK   64  A    between atoms: _165  and  _166
REMARK   65  A    between atoms: _166  and  _167
REMARK   66  A    between atoms: _167  and  _168
REMARK   67  A    between atoms: _168  and  _169
REMARK   68  A    between atoms: _175  and  _178
REMARK   69  A    between atoms: _178  and  _179
REMARK   70  A    between atoms: _191  and  _194
REMARK   71  A    between atoms: _194  and  _195
REMARK   72  A    between atoms: _195  and  _196
REMARK   73  A    between atoms: _203  and  _206
REMARK   74  A    between atoms: _206  and  _207
REMARK   75  A    between atoms: _212  and  _215
REMARK   76  A    between atoms: _215  and  _216
REMARK   77  A    between atoms: _223  and  _224
REMARK   78  A    between atoms: _228  and  _230
REMARK   79  A    between atoms: _230  and  _231
REMARK   80  A    between atoms: _230  and  _233
REMARK   81  A    between atoms: _233  and  _234
REMARK   82  A    between atoms: _239  and  _240
REMARK   83  A    between atoms: _242  and  _244
REMARK   84  A    between atoms: _244  and  _245
REMARK   85  A    between atoms: _244  and  _247
REMARK   86  A    between atoms: _250  and  _252
REMARK   87  A    between atoms: _252  and  _253
REMARK   88  A    between atoms: _256  and  _258
REMARK   89  A    between atoms: _258  and  _259
REMARK   90  A    between atoms: _258  and  _261
REMARK   91  A    between atoms: _263  and  _265
REMARK   92  A    between atoms: _265  and  _266
REMARK   93  A    between atoms: _265  and  _268
REMARK   94  A    between atoms: _268  and  _269
REMARK   95  A    between atoms: _269  and  _270
REMARK   96  A    between atoms: _273  and  _275
REMARK   97  A    between atoms: _275  and  _276
REMARK   98  A    between atoms: _275  and  _278
REMARK   99  A    between atoms: _282  and  _283
REMARK  100  A    between atoms: _288  and  _290
REMARK  101  A    between atoms: _290  and  _291
REMARK  102  A    between atoms: _290  and  _293
REMARK  103  A    between atoms: _296  and  _298
REMARK  104  A    between atoms: _298  and  _299
REMARK  105  A    between atoms: _298  and  _301
REMARK  106  A    between atoms: _301  and  _302
REMARK  107  A    between atoms: _307  and  _309
REMARK  108  A    between atoms: _309  and  _310
REMARK  109  A    between atoms: _309  and  _312
REMARK  110  A    between atoms: _312  and  _313
REMARK  111  A    between atoms: _319  and  _321
REMARK  112  A    between atoms: _321  and  _322
REMARK  113  A    between atoms: _321  and  _324
REMARK  114  A    between atoms: _324  and  _325
REMARK  115  A    between atoms: _328  and  _330
REMARK  116  A    between atoms: _330  and  _331
REMARK                            x       y       z     vdW  Elec       q    Type
REMARK                         _______ _______ _______ _____ _____    ______ ____
ROOT
ATOM      1  O   HOH     1      41.364  -1.330   9.803  0.00  0.00    +0.000 OA
ENDROOT
TORSDOF 0
REMARK  Name = ../refined-set-2016/1z6s/1z6s_pocket.pdb
REMARK  116 active torsions:
REMARK  status: ('A' for Active; 'I' for Inactive)
REMARK    1  A    between atoms: _1  and  _3
REMARK    2  A    between atoms: _3  and  _4
REMARK    3  A    between atoms: _7  and  _9
REMARK    4  A    between atoms: _9  and  _10
REMARK    5  A    between atoms: _9  and  _12
REMARK    6  A    between atoms: _12  and  _13
REMARK    7  A    between atoms: _13  and  _14
REMARK    8  A    between atoms: _14  and  _15
REMARK    9  A    between atoms: _15  and  _16
REMARK   10  A    between atoms: _20  and  _22
REMARK   11  A    between atoms: _22  and  _23
REMARK   12  A    between atoms: _22  and  _25
REMARK   13  A    between atoms: _25  and  _26
REMARK   14  A    between atoms: _32  and  _34
REMARK   15  A    between atoms: _34  and  _35
REMARK   16  A    between atoms: _34  and  _37
REMARK   17  A    between atoms: _37  and  _38
REMARK   18  A    between atoms: _38  and  _39
REMARK   19  A    between atoms: _39  and  _40
REMARK   20  A    between atoms: _49  and  _51
REMARK   21  A    between atoms: _51  and  _52
REMARK   22  A    between atoms: _51  and  _54
REMARK   23  A    between atoms: _54  and  _55
REMARK   24  A    between atoms: _55  and  _56
REMARK   25  A    between atoms: _61  and  _63
REMARK   26  A    between atoms: _63  and  _64
REMARK   27  A    between atoms: _63  and  _66
REMARK   28  A    between atoms: _66  and  _67
REMARK   29  A    between atoms: _72  and  _74
REMARK   30  A    between atoms: _74  and  _75
REMARK   31  A    between atoms: _74  and  _77
REMARK   32  A    between atoms: _77  and  _78
REMARK   33  A    between atoms: _81  and  _83
REMARK   34  A    between atoms: _83  and  _84
REMARK   35  A    between atoms: _83  and  _86
REMARK   36  A    between atoms: _86  and  _87
REMARK   37  A    between atoms: _87  and  _88
REMARK   38  A    between atoms: _88  and  _89
REMARK   39  A    between atoms: _98  and  _100
REMARK   40  A    between atoms: _100  and  _101
REMARK   41  A    between atoms: _100  and  _103
REMARK   42  A    between atoms: _103  and  _104
REMARK   43  A    between atoms: _104  and  _105
REMARK   44  A    between atoms: _105  and  _106
REMARK   45  A    between atoms: _106  and  _107
REMARK   46  A    between atoms: _111  and  _113
REMARK   47  A    between atoms: _113  and  _114
REMARK   48  A    between atoms: _113  and  _116
REMARK   49  A    between atoms: _119  and  _121
REMARK   50  A    between atoms: _121  and  _122
REMARK   51  A    between atoms: _121  and  _124
REMARK   52  A    between atoms: _124  and  _125
REMARK   53  A    between atoms: _130  and  _132
REMARK   54  A    between atoms: _132  and  _133
REMARK   55  A    between atoms: _132  and  _135
REMARK   56  A    between atoms: _135  and  _136
REMARK   57  A    between atoms: _139  and  _141
REMARK   58  A    between atoms: _141  and  _142
REMARK   59  A    between atoms: _141  and  _144
REMARK   60  A    between atoms: _147  and  _149
REMARK   61  A    between atoms: _149  and  _150
REMARK   62  A    between atoms: _153  and  _155
REMARK   63  A    between atoms: _162  and  _165
REMARK   64  A    between atoms: _165  and  _166
REMARK   65  A    between atoms: _166  and  _167
REMARK   66  A    between atoms: _167  and  _168
REMARK   67  A    between atoms: _168  and  _169
REMARK   68  A    between atoms: _175  and  _178
REMARK   69  A    between atoms: _178  and  _179
REMARK   70  A    between atoms: _191  and  _194
REMARK   71  A    between atoms: _194  and  _195
REMARK   72  A    between atoms: _195  and  _196
REMARK   73  A    between atoms: _203  and  _206
REMARK   74  A    between atoms: _206  and  _207
REMARK   75  A    between atoms: _212  and  _215
REMARK   76  A    between atoms: _215  and  _216
REMARK   77  A    between atoms: _223  and  _224
REMARK   78  A    between atoms: _228  and  _230
REMARK   79  A    between atoms: _230  and  _231
REMARK   80  A    between atoms: _230  and  _233
REMARK   81  A    between atoms: _233  and  _234
REMARK   82  A    between atoms: _239  and  _240
REMARK   83  A    between atoms: _242  and  _244
REMARK   84  A    between atoms: _244  and  _245
REMARK   85  A    between atoms: _244  and  _247
REMARK   86  A    between atoms: _250  and  _252
REMARK   87  A    between atoms: _252  and  _253
REMARK   88  A    between atoms: _256  and  _258
REMARK   89  A    between atoms: _258  and  _259
REMARK   90  A    between atoms: _258  and  _261
REMARK   91  A    between atoms: _263  and  _265
REMARK   92  A    between atoms: _265  and  _266
REMARK   93  A    between atoms: _265  and  _268
REMARK   94  A    between atoms: _268  and  _269
REMARK   95  A    between atoms: _269  and  _270
REMARK   96  A    between atoms: _273  and  _275
REMARK   97  A    between atoms: _275  and  _276
REMARK   98  A    between atoms: _275  and  _278
REMARK   99  A    between atoms: _282  and  _283
REMARK  100  A    between atoms: _288  and  _290
REMARK  101  A    between atoms: _290  and  _291
REMARK  102  A    between atoms: _290  and  _293
REMARK  103  A    between atoms: _296  and  _298
REMARK  104  A    between atoms: _298  and  _299
REMARK  105  A    between atoms: _298  and  _301
REMARK  106  A    between atoms: _301  and  _302
REMARK  107  A    between atoms: _307  and  _309
REMARK  108  A    between atoms: _309  and  _310
REMARK  109  A    between atoms: _309  and  _312
REMARK  110  A    between atoms: _312  and  _313
REMARK  111  A    between atoms: _319  and  _321
REMARK  112  A    between atoms: _321  and  _322
REMARK  113  A    between atoms: _321  and  _324
REMARK  114  A    between atoms: _324  and  _325
REMARK  115  A    between atoms: _328  and  _330
REMARK  116  A    between atoms: _330  and  _331
REMARK                            x       y       z     vdW  Elec       q    Type
REMARK                         _______ _______ _______ _____ _____    ______ ____
ROOT
ATOM      1  O   HOH     1      39.079   8.097   6.874  0.00  0.00    +0.000 OA
ENDROOT
TORSDOF 0
REMARK  Name = ../refined-set-2016/1z6s/1z6s_pocket.pdb
REMARK  116 active torsions:
REMARK  status: ('A' for Active; 'I' for Inactive)
REMARK    1  A    between atoms: _1  and  _3
REMARK    2  A    between atoms: _3  and  _4
REMARK    3  A    between atoms: _7  and  _9
REMARK    4  A    between atoms: _9  and  _10
REMARK    5  A    between atoms: _9  and  _12
REMARK    6  A    between atoms: _12  and  _13
REMARK    7  A    between atoms: _13  and  _14
REMARK    8  A    between atoms: _14  and  _15
REMARK    9  A    between atoms: _15  and  _16
REMARK   10  A    between atoms: _20  and  _22
REMARK   11  A    between atoms: _22  and  _23
REMARK   12  A    between atoms: _22  and  _25
REMARK   13  A    between atoms: _25  and  _26
REMARK   14  A    between atoms: _32  and  _34
REMARK   15  A    between atoms: _34  and  _35
REMARK   16  A    between atoms: _34  and  _37
REMARK   17  A    between atoms: _37  and  _38
REMARK   18  A    between atoms: _38  and  _39
REMARK   19  A    between atoms: _39  and  _40
REMARK   20  A    between atoms: _49  and  _51
REMARK   21  A    between atoms: _51  and  _52
REMARK   22  A    between atoms: _51  and  _54
REMARK   23  A    between atoms: _54  and  _55
REMARK   24  A    between atoms: _55  and  _56
REMARK   25  A    between atoms: _61  and  _63
REMARK   26  A    between atoms: _63  and  _64
REMARK   27  A    between atoms: _63  and  _66
REMARK   28  A    between atoms: _66  and  _67
REMARK   29  A    between atoms: _72  and  _74
REMARK   30  A    between atoms: _74  and  _75
REMARK   31  A    between atoms: _74  and  _77
REMARK   32  A    between atoms: _77  and  _78
REMARK   33  A    between atoms: _81  and  _83
REMARK   34  A    between atoms: _83  and  _84
REMARK   35  A    between atoms: _83  and  _86
REMARK   36  A    between atoms: _86  and  _87
REMARK   37  A    between atoms: _87  and  _88
REMARK   38  A    between atoms: _88  and  _89
REMARK   39  A    between atoms: _98  and  _100
REMARK   40  A    between atoms: _100  and  _101
REMARK   41  A    between atoms: _100  and  _103
REMARK   42  A    between atoms: _103  and  _104
REMARK   43  A    between atoms: _104  and  _105
REMARK   44  A    between atoms: _105  and  _106
REMARK   45  A    between atoms: _106  and  _107
REMARK   46  A    between atoms: _111  and  _113
REMARK   47  A    between atoms: _113  and  _114
REMARK   48  A    between atoms: _113  and  _116
REMARK   49  A    between atoms: _119  and  _121
REMARK   50  A    between atoms: _121  and  _122
REMARK   51  A    between atoms: _121  and  _124
REMARK   52  A    between atoms: _124  and  _125
REMARK   53  A    between atoms: _130  and  _132
REMARK   54  A    between atoms: _132  and  _133
REMARK   55  A    between atoms: _132  and  _135
REMARK   56  A    between atoms: _135  and  _136
REMARK   57  A    between atoms: _139  and  _141
REMARK   58  A    between atoms: _141  and  _142
REMARK   59  A    between atoms: _141  and  _144
REMARK   60  A    between atoms: _147  and  _149
REMARK   61  A    between atoms: _149  and  _150
REMARK   62  A    between atoms: _153  and  _155
REMARK   63  A    between atoms: _162  and  _165
REMARK   64  A    between atoms: _165  and  _166
REMARK   65  A    between atoms: _166  and  _167
REMARK   66  A    between atoms: _167  and  _168
REMARK   67  A    between atoms: _168  and  _169
REMARK   68  A    between atoms: _175  and  _178
REMARK   69  A    between atoms: _178  and  _179
REMARK   70  A    between atoms: _191  and  _194
REMARK   71  A    between atoms: _194  and  _195
REMARK   72  A    between atoms: _195  and  _196
REMARK   73  A    between atoms: _203  and  _206
REMARK   74  A    between atoms: _206  and  _207
REMARK   75  A    between atoms: _212  and  _215
REMARK   76  A    between atoms: _215  and  _216
REMARK   77  A    between atoms: _223  and  _224
REMARK   78  A    between atoms: _228  and  _230
REMARK   79  A    between atoms: _230  and  _231
REMARK   80  A    between atoms: _230  and  _233
REMARK   81  A    between atoms: _233  and  _234
REMARK   82  A    between atoms: _239  and  _240
REMARK   83  A    between atoms: _242  and  _244
REMARK   84  A    between atoms: _244  and  _245
REMARK   85  A    between atoms: _244  and  _247
REMARK   86  A    between atoms: _250  and  _252
REMARK   87  A    between atoms: _252  and  _253
REMARK   88  A    between atoms: _256  and  _258
REMARK   89  A    between atoms: _258  and  _259
REMARK   90  A    between atoms: _258  and  _261
REMARK   91  A    between atoms: _263  and  _265
REMARK   92  A    between atoms: _265  and  _266
REMARK   93  A    between atoms: _265  and  _268
REMARK   94  A    between atoms: _268  and  _269
REMARK   95  A    between atoms: _269  and  _270
REMARK   96  A    between atoms: _273  and  _275
REMARK   97  A    between atoms: _275  and  _276
REMARK   98  A    between atoms: _275  and  _278
REMARK   99  A    between atoms: _282  and  _283
REMARK  100  A    between atoms: _288  and  _290
REMARK  101  A    between atoms: _290  and  _291
REMARK  102  A    between atoms: _290  and  _293
REMARK  103  A    between atoms: _296  and  _298
REMARK  104  A    between atoms: _298  and  _299
REMARK  105  A    between atoms: _298  and  _301
REMARK  106  A    between atoms: _301  and  _302
REMARK  107  A    between atoms: _307  and  _309
REMARK  108  A    between atoms: _309  and  _310
REMARK  109  A    between atoms: _309  and  _312
REMARK  110  A    between atoms: _312  and  _313
REMARK  111  A    between atoms: _319  and  _321
REMARK  112  A    between atoms: _321  and  _322
REMARK  113  A    between atoms: _321  and  _324
REMARK  114  A    between atoms: _324  and  _325
REMARK  115  A    between atoms: _328  and  _330
REMARK  116  A    between atoms: _330  and  _331
REMARK                            x       y       z     vdW  Elec       q    Type
REMARK                         _______ _______ _______ _____ _____    ______ ____
ROOT
ATOM      1  O   HOH     1      32.537  12.877  20.313  0.00  0.00    +0.000 OA
ENDROOT
TORSDOF 0
REMARK  Name = ../refined-set-2016/1z6s/1z6s_pocket.pdb
REMARK  116 active torsions:
REMARK  status: ('A' for Active; 'I' for Inactive)
REMARK    1  A    between atoms: _1  and  _3
REMARK    2  A    between atoms: _3  and  _4
REMARK    3  A    between atoms: _7  and  _9
REMARK    4  A    between atoms: _9  and  _10
REMARK    5  A    between atoms: _9  and  _12
REMARK    6  A    between atoms: _12  and  _13
REMARK    7  A    between atoms: _13  and  _14
REMARK    8  A    between atoms: _14  and  _15
REMARK    9  A    between atoms: _15  and  _16
REMARK   10  A    between atoms: _20  and  _22
REMARK   11  A    between atoms: _22  and  _23
REMARK   12  A    between atoms: _22  and  _25
REMARK   13  A    between atoms: _25  and  _26
REMARK   14  A    between atoms: _32  and  _34
REMARK   15  A    between atoms: _34  and  _35
REMARK   16  A    between atoms: _34  and  _37
REMARK   17  A    between atoms: _37  and  _38
REMARK   18  A    between atoms: _38  and  _39
REMARK   19  A    between atoms: _39  and  _40
REMARK   20  A    between atoms: _49  and  _51
REMARK   21  A    between atoms: _51  and  _52
REMARK   22  A    between atoms: _51  and  _54
REMARK   23  A    between atoms: _54  and  _55
REMARK   24  A    between atoms: _55  and  _56
REMARK   25  A    between atoms: _61  and  _63
REMARK   26  A    between atoms: _63  and  _64
REMARK   27  A    between atoms: _63  and  _66
REMARK   28  A    between atoms: _66  and  _67
REMARK   29  A    between atoms: _72  and  _74
REMARK   30  A    between atoms: _74  and  _75
REMARK   31  A    between atoms: _74  and  _77
REMARK   32  A    between atoms: _77  and  _78
REMARK   33  A    between atoms: _81  and  _83
REMARK   34  A    between atoms: _83  and  _84
REMARK   35  A    between atoms: _83  and  _86
REMARK   36  A    between atoms: _86  and  _87
REMARK   37  A    between atoms: _87  and  _88
REMARK   38  A    between atoms: _88  and  _89
REMARK   39  A    between atoms: _98  and  _100
REMARK   40  A    between atoms: _100  and  _101
REMARK   41  A    between atoms: _100  and  _103
REMARK   42  A    between atoms: _103  and  _104
REMARK   43  A    between atoms: _104  and  _105
REMARK   44  A    between atoms: _105  and  _106
REMARK   45  A    between atoms: _106  and  _107
REMARK   46  A    between atoms: _111  and  _113
REMARK   47  A    between atoms: _113  and  _114
REMARK   48  A    between atoms: _113  and  _116
REMARK   49  A    between atoms: _119  and  _121
REMARK   50  A    between atoms: _121  and  _122
REMARK   51  A    between atoms: _121  and  _124
REMARK   52  A    between atoms: _124  and  _125
REMARK   53  A    between atoms: _130  and  _132
REMARK   54  A    between atoms: _132  and  _133
REMARK   55  A    between atoms: _132  and  _135
REMARK   56  A    between atoms: _135  and  _136
REMARK   57  A    between atoms: _139  and  _141
REMARK   58  A    between atoms: _141  and  _142
REMARK   59  A    between atoms: _141  and  _144
REMARK   60  A    between atoms: _147  and  _149
REMARK   61  A    between atoms: _149  and  _150
REMARK   62  A    between atoms: _153  and  _155
REMARK   63  A    between atoms: _162  and  _165
REMARK   64  A    between atoms: _165  and  _166
REMARK   65  A    between atoms: _166  and  _167
REMARK   66  A    between atoms: _167  and  _168
REMARK   67  A    between atoms: _168  and  _169
REMARK   68  A    between atoms: _175  and  _178
REMARK   69  A    between atoms: _178  and  _179
REMARK   70  A    between atoms: _191  and  _194
REMARK   71  A    between atoms: _194  and  _195
REMARK   72  A    between atoms: _195  and  _196
REMARK   73  A    between atoms: _203  and  _206
REMARK   74  A    between atoms: _206  and  _207
REMARK   75  A    between atoms: _212  and  _215
REMARK   76  A    between atoms: _215  and  _216
REMARK   77  A    between atoms: _223  and  _224
REMARK   78  A    between atoms: _228  and  _230
REMARK   79  A    between atoms: _230  and  _231
REMARK   80  A    between atoms: _230  and  _233
REMARK   81  A    between atoms: _233  and  _234
REMARK   82  A    between atoms: _239  and  _240
REMARK   83  A    between atoms: _242  and  _244
REMARK   84  A    between atoms: _244  and  _245
REMARK   85  A    between atoms: _244  and  _247
REMARK   86  A    between atoms: _250  and  _252
REMARK   87  A    between atoms: _252  and  _253
REMARK   88  A    between atoms: _256  and  _258
REMARK   89  A    between atoms: _258  and  _259
REMARK   90  A    between atoms: _258  and  _261
REMARK   91  A    between atoms: _263  and  _265
REMARK   92  A    between atoms: _265  and  _266
REMARK   93  A    between atoms: _265  and  _268
REMARK   94  A    between atoms: _268  and  _269
REMARK   95  A    between atoms: _269  and  _270
REMARK   96  A    between atoms: _273  and  _275
REMARK   97  A    between atoms: _275  and  _276
REMARK   98  A    between atoms: _275  and  _278
REMARK   99  A    between atoms: _282  and  _283
REMARK  100  A    between atoms: _288  and  _290
REMARK  101  A    between atoms: _290  and  _291
REMARK  102  A    between atoms: _290  and  _293
REMARK  103  A    between atoms: _296  and  _298
REMARK  104  A    between atoms: _298  and  _299
REMARK  105  A    between atoms: _298  and  _301
REMARK  106  A    between atoms: _301  and  _302
REMARK  107  A    between atoms: _307  and  _309
REMARK  108  A    between atoms: _309  and  _310
REMARK  109  A    between atoms: _309  and  _312
REMARK  110  A    between atoms: _312  and  _313
REMARK  111  A    between atoms: _319  and  _321
REMARK  112  A    between atoms: _321  and  _322
REMARK  113  A    between atoms: _321  and  _324
REMARK  114  A    between atoms: _324  and  _325
REMARK  115  A    between atoms: _328  and  _330
REMARK  116  A    between atoms: _330  and  _331
REMARK                            x       y       z     vdW  Elec       q    Type
REMARK                         _______ _______ _______ _____ _____    ______ ____
ROOT
ATOM      1  O   HOH     1      36.298  -0.090  13.211  0.00  0.00    +0.000 OA
ENDROOT
TORSDOF 0
REMARK  Name = ../refined-set-2016/1z6s/1z6s_pocket.pdb
REMARK  116 active torsions:
REMARK  status: ('A' for Active; 'I' for Inactive)
REMARK    1  A    between atoms: _1  and  _3
REMARK    2  A    between atoms: _3  and  _4
REMARK    3  A    between atoms: _7  and  _9
REMARK    4  A    between atoms: _9  and  _10
REMARK    5  A    between atoms: _9  and  _12
REMARK    6  A    between atoms: _12  and  _13
REMARK    7  A    between atoms: _13  and  _14
REMARK    8  A    between atoms: _14  and  _15
REMARK    9  A    between atoms: _15  and  _16
REMARK   10  A    between atoms: _20  and  _22
REMARK   11  A    between atoms: _22  and  _23
REMARK   12  A    between atoms: _22  and  _25
REMARK   13  A    between atoms: _25  and  _26
REMARK   14  A    between atoms: _32  and  _34
REMARK   15  A    between atoms: _34  and  _35
REMARK   16  A    between atoms: _34  and  _37
REMARK   17  A    between atoms: _37  and  _38
REMARK   18  A    between atoms: _38  and  _39
REMARK   19  A    between atoms: _39  and  _40
REMARK   20  A    between atoms: _49  and  _51
REMARK   21  A    between atoms: _51  and  _52
REMARK   22  A    between atoms: _51  and  _54
REMARK   23  A    between atoms: _54  and  _55
REMARK   24  A    between atoms: _55  and  _56
REMARK   25  A    between atoms: _61  and  _63
REMARK   26  A    between atoms: _63  and  _64
REMARK   27  A    between atoms: _63  and  _66
REMARK   28  A    between atoms: _66  and  _67
REMARK   29  A    between atoms: _72  and  _74
REMARK   30  A    between atoms: _74  and  _75
REMARK   31  A    between atoms: _74  and  _77
REMARK   32  A    between atoms: _77  and  _78
REMARK   33  A    between atoms: _81  and  _83
REMARK   34  A    between atoms: _83  and  _84
REMARK   35  A    between atoms: _83  and  _86
REMARK   36  A    between atoms: _86  and  _87
REMARK   37  A    between atoms: _87  and  _88
REMARK   38  A    between atoms: _88  and  _89
REMARK   39  A    between atoms: _98  and  _100
REMARK   40  A    between atoms: _100  and  _101
REMARK   41  A    between atoms: _100  and  _103
REMARK   42  A    between atoms: _103  and  _104
REMARK   43  A    between atoms: _104  and  _105
REMARK   44  A    between atoms: _105  and  _106
REMARK   45  A    between atoms: _106  and  _107
REMARK   46  A    between atoms: _111  and  _113
REMARK   47  A    between atoms: _113  and  _114
REMARK   48  A    between atoms: _113  and  _116
REMARK   49  A    between atoms: _119  and  _121
REMARK   50  A    between atoms: _121  and  _122
REMARK   51  A    between atoms: _121  and  _124
REMARK   52  A    between atoms: _124  and  _125
REMARK   53  A    between atoms: _130  and  _132
REMARK   54  A    between atoms: _132  and  _133
REMARK   55  A    between atoms: _132  and  _135
REMARK   56  A    between atoms: _135  and  _136
REMARK   57  A    between atoms: _139  and  _141
REMARK   58  A    between atoms: _141  and  _142
REMARK   59  A    between atoms: _141  and  _144
REMARK   60  A    between atoms: _147  and  _149
REMARK   61  A    between atoms: _149  and  _150
REMARK   62  A    between atoms: _153  and  _155
REMARK   63  A    between atoms: _162  and  _165
REMARK   64  A    between atoms: _165  and  _166
REMARK   65  A    between atoms: _166  and  _167
REMARK   66  A    between atoms: _167  and  _168
REMARK   67  A    between atoms: _168  and  _169
REMARK   68  A    between atoms: _175  and  _178
REMARK   69  A    between atoms: _178  and  _179
REMARK   70  A    between atoms: _191  and  _194
REMARK   71  A    between atoms: _194  and  _195
REMARK   72  A    between atoms: _195  and  _196
REMARK   73  A    between atoms: _203  and  _206
REMARK   74  A    between atoms: _206  and  _207
REMARK   75  A    between atoms: _212  and  _215
REMARK   76  A    between atoms: _215  and  _216
REMARK   77  A    between atoms: _223  and  _224
REMARK   78  A    between atoms: _228  and  _230
REMARK   79  A    between atoms: _230  and  _231
REMARK   80  A    between atoms: _230  and  _233
REMARK   81  A    between atoms: _233  and  _234
REMARK   82  A    between atoms: _239  and  _240
REMARK   83  A    between atoms: _242  and  _244
REMARK   84  A    between atoms: _244  and  _245
REMARK   85  A    between atoms: _244  and  _247
REMARK   86  A    between atoms: _250  and  _252
REMARK   87  A    between atoms: _252  and  _253
REMARK   88  A    between atoms: _256  and  _258
REMARK   89  A    between atoms: _258  and  _259
REMARK   90  A    between atoms: _258  and  _261
REMARK   91  A    between atoms: _263  and  _265
REMARK   92  A    between atoms: _265  and  _266
REMARK   93  A    between atoms: _265  and  _268
REMARK   94  A    between atoms: _268  and  _269
REMARK   95  A    between atoms: _269  and  _270
REMARK   96  A    between atoms: _273  and  _275
REMARK   97  A    between atoms: _275  and  _276
REMARK   98  A    between atoms: _275  and  _278
REMARK   99  A    between atoms: _282  and  _283
REMARK  100  A    between atoms: _288  and  _290
REMARK  101  A    between atoms: _290  and  _291
REMARK  102  A    between atoms: _290  and  _293
REMARK  103  A    between atoms: _296  and  _298
REMARK  104  A    between atoms: _298  and  _299
REMARK  105  A    between atoms: _298  and  _301
REMARK  106  A    between atoms: _301  and  _302
REMARK  107  A    between atoms: _307  and  _309
REMARK  108  A    between atoms: _309  and  _310
REMARK  109  A    between atoms: _309  and  _312
REMARK  110  A    between atoms: _312  and  _313
REMARK  111  A    between atoms: _319  and  _321
REMARK  112  A    between atoms: _321  and  _322
REMARK  113  A    between atoms: _321  and  _324
REMARK  114  A    between atoms: _324  and  _325
REMARK  115  A    between atoms: _328  and  _330
REMARK  116  A    between atoms: _330  and  _331
REMARK                            x       y       z     vdW  Elec       q    Type
REMARK                         _______ _______ _______ _____ _____    ______ ____
ROOT
ATOM      1  O   HOH     1      41.799   3.147  22.537  0.00  0.00    +0.000 OA
ENDROOT
TORSDOF 0
REMARK  Name = ../refined-set-2016/1z6s/1z6s_pocket.pdb
REMARK  116 active torsions:
REMARK  status: ('A' for Active; 'I' for Inactive)
REMARK    1  A    between atoms: _1  and  _3
REMARK    2  A    between atoms: _3  and  _4
REMARK    3  A    between atoms: _7  and  _9
REMARK    4  A    between atoms: _9  and  _10
REMARK    5  A    between atoms: _9  and  _12
REMARK    6  A    between atoms: _12  and  _13
REMARK    7  A    between atoms: _13  and  _14
REMARK    8  A    between atoms: _14  and  _15
REMARK    9  A    between atoms: _15  and  _16
REMARK   10  A    between atoms: _20  and  _22
REMARK   11  A    between atoms: _22  and  _23
REMARK   12  A    between atoms: _22  and  _25
REMARK   13  A    between atoms: _25  and  _26
REMARK   14  A    between atoms: _32  and  _34
REMARK   15  A    between atoms: _34  and  _35
REMARK   16  A    between atoms: _34  and  _37
REMARK   17  A    between atoms: _37  and  _38
REMARK   18  A    between atoms: _38  and  _39
REMARK   19  A    between atoms: _39  and  _40
REMARK   20  A    between atoms: _49  and  _51
REMARK   21  A    between atoms: _51  and  _52
REMARK   22  A    between atoms: _51  and  _54
REMARK   23  A    between atoms: _54  and  _55
REMARK   24  A    between atoms: _55  and  _56
REMARK   25  A    between atoms: _61  and  _63
REMARK   26  A    between atoms: _63  and  _64
REMARK   27  A    between atoms: _63  and  _66
REMARK   28  A    between atoms: _66  and  _67
REMARK   29  A    between atoms: _72  and  _74
REMARK   30  A    between atoms: _74  and  _75
REMARK   31  A    between atoms: _74  and  _77
REMARK   32  A    between atoms: _77  and  _78
REMARK   33  A    between atoms: _81  and  _83
REMARK   34  A    between atoms: _83  and  _84
REMARK   35  A    between atoms: _83  and  _86
REMARK   36  A    between atoms: _86  and  _87
REMARK   37  A    between atoms: _87  and  _88
REMARK   38  A    between atoms: _88  and  _89
REMARK   39  A    between atoms: _98  and  _100
REMARK   40  A    between atoms: _100  and  _101
REMARK   41  A    between atoms: _100  and  _103
REMARK   42  A    between atoms: _103  and  _104
REMARK   43  A    between atoms: _104  and  _105
REMARK   44  A    between atoms: _105  and  _106
REMARK   45  A    between atoms: _106  and  _107
REMARK   46  A    between atoms: _111  and  _113
REMARK   47  A    between atoms: _113  and  _114
REMARK   48  A    between atoms: _113  and  _116
REMARK   49  A    between atoms: _119  and  _121
REMARK   50  A    between atoms: _121  and  _122
REMARK   51  A    between atoms: _121  and  _124
REMARK   52  A    between atoms: _124  and  _125
REMARK   53  A    between atoms: _130  and  _132
REMARK   54  A    between atoms: _132  and  _133
REMARK   55  A    between atoms: _132  and  _135
REMARK   56  A    between atoms: _135  and  _136
REMARK   57  A    between atoms: _139  and  _141
REMARK   58  A    between atoms: _141  and  _142
REMARK   59  A    between atoms: _141  and  _144
REMARK   60  A    between atoms: _147  and  _149
REMARK   61  A    between atoms: _149  and  _150
REMARK   62  A    between atoms: _153  and  _155
REMARK   63  A    between atoms: _162  and  _165
REMARK   64  A    between atoms: _165  and  _166
REMARK   65  A    between atoms: _166  and  _167
REMARK   66  A    between atoms: _167  and  _168
REMARK   67  A    between atoms: _168  and  _169
REMARK   68  A    between atoms: _175  and  _178
REMARK   69  A    between atoms: _178  and  _179
REMARK   70  A    between atoms: _191  and  _194
REMARK   71  A    between atoms: _194  and  _195
REMARK   72  A    between atoms: _195  and  _196
REMARK   73  A    between atoms: _203  and  _206
REMARK   74  A    between atoms: _206  and  _207
REMARK   75  A    between atoms: _212  and  _215
REMARK   76  A    between atoms: _215  and  _216
REMARK   77  A    between atoms: _223  and  _224
REMARK   78  A    between atoms: _228  and  _230
REMARK   79  A    between atoms: _230  and  _231
REMARK   80  A    between atoms: _230  and  _233
REMARK   81  A    between atoms: _233  and  _234
REMARK   82  A    between atoms: _239  and  _240
REMARK   83  A    between atoms: _242  and  _244
REMARK   84  A    between atoms: _244  and  _245
REMARK   85  A    between atoms: _244  and  _247
REMARK   86  A    between atoms: _250  and  _252
REMARK   87  A    between atoms: _252  and  _253
REMARK   88  A    between atoms: _256  and  _258
REMARK   89  A    between atoms: _258  and  _259
REMARK   90  A    between atoms: _258  and  _261
REMARK   91  A    between atoms: _263  and  _265
REMARK   92  A    between atoms: _265  and  _266
REMARK   93  A    between atoms: _265  and  _268
REMARK   94  A    between atoms: _268  and  _269
REMARK   95  A    between atoms: _269  and  _270
REMARK   96  A    between atoms: _273  and  _275
REMARK   97  A    between atoms: _275  and  _276
REMARK   98  A    between atoms: _275  and  _278
REMARK   99  A    between atoms: _282  and  _283
REMARK  100  A    between atoms: _288  and  _290
REMARK  101  A    between atoms: _290  and  _291
REMARK  102  A    between atoms: _290  and  _293
REMARK  103  A    between atoms: _296  and  _298
REMARK  104  A    between atoms: _298  and  _299
REMARK  105  A    between atoms: _298  and  _301
REMARK  106  A    between atoms: _301  and  _302
REMARK  107  A    between atoms: _307  and  _309
REMARK  108  A    between atoms: _309  and  _310
REMARK  109  A    between atoms: _309  and  _312
REMARK  110  A    between atoms: _312  and  _313
REMARK  111  A    between atoms: _319  and  _321
REMARK  112  A    between atoms: _321  and  _322
REMARK  113  A    between atoms: _321  and  _324
REMARK  114  A    between atoms: _324  and  _325
REMARK  115  A    between atoms: _328  and  _330
REMARK  116  A    between atoms: _330  and  _331
REMARK                            x       y       z     vdW  Elec       q    Type
REMARK                         _______ _______ _______ _____ _____    ______ ____
ROOT
ATOM      1  O   HOH     1      40.954   6.024   7.336  0.00  0.00    +0.000 OA
ENDROOT
TORSDOF 0
REMARK  Name = ../refined-set-2016/1z6s/1z6s_pocket.pdb
REMARK  116 active torsions:
REMARK  status: ('A' for Active; 'I' for Inactive)
REMARK    1  A    between atoms: _1  and  _3
REMARK    2  A    between atoms: _3  and  _4
REMARK    3  A    between atoms: _7  and  _9
REMARK    4  A    between atoms: _9  and  _10
REMARK    5  A    between atoms: _9  and  _12
REMARK    6  A    between atoms: _12  and  _13
REMARK    7  A    between atoms: _13  and  _14
REMARK    8  A    between atoms: _14  and  _15
REMARK    9  A    between atoms: _15  and  _16
REMARK   10  A    between atoms: _20  and  _22
REMARK   11  A    between atoms: _22  and  _23
REMARK   12  A    between atoms: _22  and  _25
REMARK   13  A    between atoms: _25  and  _26
REMARK   14  A    between atoms: _32  and  _34
REMARK   15  A    between atoms: _34  and  _35
REMARK   16  A    between atoms: _34  and  _37
REMARK   17  A    between atoms: _37  and  _38
REMARK   18  A    between atoms: _38  and  _39
REMARK   19  A    between atoms: _39  and  _40
REMARK   20  A    between atoms: _49  and  _51
REMARK   21  A    between atoms: _51  and  _52
REMARK   22  A    between atoms: _51  and  _54
REMARK   23  A    between atoms: _54  and  _55
REMARK   24  A    between atoms: _55  and  _56
REMARK   25  A    between atoms: _61  and  _63
REMARK   26  A    between atoms: _63  and  _64
REMARK   27  A    between atoms: _63  and  _66
REMARK   28  A    between atoms: _66  and  _67
REMARK   29  A    between atoms: _72  and  _74
REMARK   30  A    between atoms: _74  and  _75
REMARK   31  A    between atoms: _74  and  _77
REMARK   32  A    between atoms: _77  and  _78
REMARK   33  A    between atoms: _81  and  _83
REMARK   34  A    between atoms: _83  and  _84
REMARK   35  A    between atoms: _83  and  _86
REMARK   36  A    between atoms: _86  and  _87
REMARK   37  A    between atoms: _87  and  _88
REMARK   38  A    between atoms: _88  and  _89
REMARK   39  A    between atoms: _98  and  _100
REMARK   40  A    between atoms: _100  and  _101
REMARK   41  A    between atoms: _100  and  _103
REMARK   42  A    between atoms: _103  and  _104
REMARK   43  A    between atoms: _104  and  _105
REMARK   44  A    between atoms: _105  and  _106
REMARK   45  A    between atoms: _106  and  _107
REMARK   46  A    between atoms: _111  and  _113
REMARK   47  A    between atoms: _113  and  _114
REMARK   48  A    between atoms: _113  and  _116
REMARK   49  A    between atoms: _119  and  _121
REMARK   50  A    between atoms: _121  and  _122
REMARK   51  A    between atoms: _121  and  _124
REMARK   52  A    between atoms: _124  and  _125
REMARK   53  A    between atoms: _130  and  _132
REMARK   54  A    between atoms: _132  and  _133
REMARK   55  A    between atoms: _132  and  _135
REMARK   56  A    between atoms: _135  and  _136
REMARK   57  A    between atoms: _139  and  _141
REMARK   58  A    between atoms: _141  and  _142
REMARK   59  A    between atoms: _141  and  _144
REMARK   60  A    between atoms: _147  and  _149
REMARK   61  A    between atoms: _149  and  _150
REMARK   62  A    between atoms: _153  and  _155
REMARK   63  A    between atoms: _162  and  _165
REMARK   64  A    between atoms: _165  and  _166
REMARK   65  A    between atoms: _166  and  _167
REMARK   66  A    between atoms: _167  and  _168
REMARK   67  A    between atoms: _168  and  _169
REMARK   68  A    between atoms: _175  and  _178
REMARK   69  A    between atoms: _178  and  _179
REMARK   70  A    between atoms: _191  and  _194
REMARK   71  A    between atoms: _194  and  _195
REMARK   72  A    between atoms: _195  and  _196
REMARK   73  A    between atoms: _203  and  _206
REMARK   74  A    between atoms: _206  and  _207
REMARK   75  A    between atoms: _212  and  _215
REMARK   76  A    between atoms: _215  and  _216
REMARK   77  A    between atoms: _223  and  _224
REMARK   78  A    between atoms: _228  and  _230
REMARK   79  A    between atoms: _230  and  _231
REMARK   80  A    between atoms: _230  and  _233
REMARK   81  A    between atoms: _233  and  _234
REMARK   82  A    between atoms: _239  and  _240
REMARK   83  A    between atoms: _242  and  _244
REMARK   84  A    between atoms: _244  and  _245
REMARK   85  A    between atoms: _244  and  _247
REMARK   86  A    between atoms: _250  and  _252
REMARK   87  A    between atoms: _252  and  _253
REMARK   88  A    between atoms: _256  and  _258
REMARK   89  A    between atoms: _258  and  _259
REMARK   90  A    between atoms: _258  and  _261
REMARK   91  A    between atoms: _263  and  _265
REMARK   92  A    between atoms: _265  and  _266
REMARK   93  A    between atoms: _265  and  _268
REMARK   94  A    between atoms: _268  and  _269
REMARK   95  A    between atoms: _269  and  _270
REMARK   96  A    between atoms: _273  and  _275
REMARK   97  A    between atoms: _275  and  _276
REMARK   98  A    between atoms: _275  and  _278
REMARK   99  A    between atoms: _282  and  _283
REMARK  100  A    between atoms: _288  and  _290
REMARK  101  A    between atoms: _290  and  _291
REMARK  102  A    between atoms: _290  and  _293
REMARK  103  A    between atoms: _296  and  _298
REMARK  104  A    between atoms: _298  and  _299
REMARK  105  A    between atoms: _298  and  _301
REMARK  106  A    between atoms: _301  and  _302
REMARK  107  A    between atoms: _307  and  _309
REMARK  108  A    between atoms: _309  and  _310
REMARK  109  A    between atoms: _309  and  _312
REMARK  110  A    between atoms: _312  and  _313
REMARK  111  A    between atoms: _319  and  _321
REMARK  112  A    between atoms: _321  and  _322
REMARK  113  A    between atoms: _321  and  _324
REMARK  114  A    between atoms: _324  and  _325
REMARK  115  A    between atoms: _328  and  _330
REMARK  116  A    between atoms: _330  and  _331
REMARK                            x       y       z     vdW  Elec       q    Type
REMARK                         _______ _______ _______ _____ _____    ______ ____
ROOT
ATOM      1  O   HOH     1      43.066   2.290  24.678  0.00  0.00    +0.000 OA
ENDROOT
TORSDOF 0
REMARK  Name = ../refined-set-2016/1z6s/1z6s_pocket.pdb
REMARK  116 active torsions:
REMARK  status: ('A' for Active; 'I' for Inactive)
REMARK    1  A    between atoms: _1  and  _3
REMARK    2  A    between atoms: _3  and  _4
REMARK    3  A    between atoms: _7  and  _9
REMARK    4  A    between atoms: _9  and  _10
REMARK    5  A    between atoms: _9  and  _12
REMARK    6  A    between atoms: _12  and  _13
REMARK    7  A    between atoms: _13  and  _14
REMARK    8  A    between atoms: _14  and  _15
REMARK    9  A    between atoms: _15  and  _16
REMARK   10  A    between atoms: _20  and  _22
REMARK   11  A    between atoms: _22  and  _23
REMARK   12  A    between atoms: _22  and  _25
REMARK   13  A    between atoms: _25  and  _26
REMARK   14  A    between atoms: _32  and  _34
REMARK   15  A    between atoms: _34  and  _35
REMARK   16  A    between atoms: _34  and  _37
REMARK   17  A    between atoms: _37  and  _38
REMARK   18  A    between atoms: _38  and  _39
REMARK   19  A    between atoms: _39  and  _40
REMARK   20  A    between atoms: _49  and  _51
REMARK   21  A    between atoms: _51  and  _52
REMARK   22  A    between atoms: _51  and  _54
REMARK   23  A    between atoms: _54  and  _55
REMARK   24  A    between atoms: _55  and  _56
REMARK   25  A    between atoms: _61  and  _63
REMARK   26  A    between atoms: _63  and  _64
REMARK   27  A    between atoms: _63  and  _66
REMARK   28  A    between atoms: _66  and  _67
REMARK   29  A    between atoms: _72  and  _74
REMARK   30  A    between atoms: _74  and  _75
REMARK   31  A    between atoms: _74  and  _77
REMARK   32  A    between atoms: _77  and  _78
REMARK   33  A    between atoms: _81  and  _83
REMARK   34  A    between atoms: _83  and  _84
REMARK   35  A    between atoms: _83  and  _86
REMARK   36  A    between atoms: _86  and  _87
REMARK   37  A    between atoms: _87  and  _88
REMARK   38  A    between atoms: _88  and  _89
REMARK   39  A    between atoms: _98  and  _100
REMARK   40  A    between atoms: _100  and  _101
REMARK   41  A    between atoms: _100  and  _103
REMARK   42  A    between atoms: _103  and  _104
REMARK   43  A    between atoms: _104  and  _105
REMARK   44  A    between atoms: _105  and  _106
REMARK   45  A    between atoms: _106  and  _107
REMARK   46  A    between atoms: _111  and  _113
REMARK   47  A    between atoms: _113  and  _114
REMARK   48  A    between atoms: _113  and  _116
REMARK   49  A    between atoms: _119  and  _121
REMARK   50  A    between atoms: _121  and  _122
REMARK   51  A    between atoms: _121  and  _124
REMARK   52  A    between atoms: _124  and  _125
REMARK   53  A    between atoms: _130  and  _132
REMARK   54  A    between atoms: _132  and  _133
REMARK   55  A    between atoms: _132  and  _135
REMARK   56  A    between atoms: _135  and  _136
REMARK   57  A    between atoms: _139  and  _141
REMARK   58  A    between atoms: _141  and  _142
REMARK   59  A    between atoms: _141  and  _144
REMARK   60  A    between atoms: _147  and  _149
REMARK   61  A    between atoms: _149  and  _150
REMARK   62  A    between atoms: _153  and  _155
REMARK   63  A    between atoms: _162  and  _165
REMARK   64  A    between atoms: _165  and  _166
REMARK   65  A    between atoms: _166  and  _167
REMARK   66  A    between atoms: _167  and  _168
REMARK   67  A    between atoms: _168  and  _169
REMARK   68  A    between atoms: _175  and  _178
REMARK   69  A    between atoms: _178  and  _179
REMARK   70  A    between atoms: _191  and  _194
REMARK   71  A    between atoms: _194  and  _195
REMARK   72  A    between atoms: _195  and  _196
REMARK   73  A    between atoms: _203  and  _206
REMARK   74  A    between atoms: _206  and  _207
REMARK   75  A    between atoms: _212  and  _215
REMARK   76  A    between atoms: _215  and  _216
REMARK   77  A    between atoms: _223  and  _224
REMARK   78  A    between atoms: _228  and  _230
REMARK   79  A    between atoms: _230  and  _231
REMARK   80  A    between atoms: _230  and  _233
REMARK   81  A    between atoms: _233  and  _234
REMARK   82  A    between atoms: _239  and  _240
REMARK   83  A    between atoms: _242  and  _244
REMARK   84  A    between atoms: _244  and  _245
REMARK   85  A    between atoms: _244  and  _247
REMARK   86  A    between atoms: _250  and  _252
REMARK   87  A    between atoms: _252  and  _253
REMARK   88  A    between atoms: _256  and  _258
REMARK   89  A    between atoms: _258  and  _259
REMARK   90  A    between atoms: _258  and  _261
REMARK   91  A    between atoms: _263  and  _265
REMARK   92  A    between atoms: _265  and  _266
REMARK   93  A    between atoms: _265  and  _268
REMARK   94  A    between atoms: _268  and  _269
REMARK   95  A    between atoms: _269  and  _270
REMARK   96  A    between atoms: _273  and  _275
REMARK   97  A    between atoms: _275  and  _276
REMARK   98  A    between atoms: _275  and  _278
REMARK   99  A    between atoms: _282  and  _283
REMARK  100  A    between atoms: _288  and  _290
REMARK  101  A    between atoms: _290  and  _291
REMARK  102  A    between atoms: _290  and  _293
REMARK  103  A    between atoms: _296  and  _298
REMARK  104  A    between atoms: _298  and  _299
REMARK  105  A    between atoms: _298  and  _301
REMARK  106  A    between atoms: _301  and  _302
REMARK  107  A    between atoms: _307  and  _309
REMARK  108  A    between atoms: _309  and  _310
REMARK  109  A    between atoms: _309  and  _312
REMARK  110  A    between atoms: _312  and  _313
REMARK  111  A    between atoms: _319  and  _321
REMARK  112  A    between atoms: _321  and  _322
REMARK  113  A    between atoms: _321  and  _324
REMARK  114  A    between atoms: _324  and  _325
REMARK  115  A    between atoms: _328  and  _330
REMARK  116  A    between atoms: _330  and  _331
REMARK                            x       y       z     vdW  Elec       q    Type
REMARK                         _______ _______ _______ _____ _____    ______ ____
ROOT
ATOM      1  O   HOH     1      40.051   6.411   9.993  0.00  0.00    +0.000 OA
ENDROOT
TORSDOF 0
REMARK  Name = ../refined-set-2016/1z6s/1z6s_pocket.pdb
REMARK  116 active torsions:
REMARK  status: ('A' for Active; 'I' for Inactive)
REMARK    1  A    between atoms: _1  and  _3
REMARK    2  A    between atoms: _3  and  _4
REMARK    3  A    between atoms: _7  and  _9
REMARK    4  A    between atoms: _9  and  _10
REMARK    5  A    between atoms: _9  and  _12
REMARK    6  A    between atoms: _12  and  _13
REMARK    7  A    between atoms: _13  and  _14
REMARK    8  A    between atoms: _14  and  _15
REMARK    9  A    between atoms: _15  and  _16
REMARK   10  A    between atoms: _20  and  _22
REMARK   11  A    between atoms: _22  and  _23
REMARK   12  A    between atoms: _22  and  _25
REMARK   13  A    between atoms: _25  and  _26
REMARK   14  A    between atoms: _32  and  _34
REMARK   15  A    between atoms: _34  and  _35
REMARK   16  A    between atoms: _34  and  _37
REMARK   17  A    between atoms: _37  and  _38
REMARK   18  A    between atoms: _38  and  _39
REMARK   19  A    between atoms: _39  and  _40
REMARK   20  A    between atoms: _49  and  _51
REMARK   21  A    between atoms: _51  and  _52
REMARK   22  A    between atoms: _51  and  _54
REMARK   23  A    between atoms: _54  and  _55
REMARK   24  A    between atoms: _55  and  _56
REMARK   25  A    between atoms: _61  and  _63
REMARK   26  A    between atoms: _63  and  _64
REMARK   27  A    between atoms: _63  and  _66
REMARK   28  A    between atoms: _66  and  _67
REMARK   29  A    between atoms: _72  and  _74
REMARK   30  A    between atoms: _74  and  _75
REMARK   31  A    between atoms: _74  and  _77
REMARK   32  A    between atoms: _77  and  _78
REMARK   33  A    between atoms: _81  and  _83
REMARK   34  A    between atoms: _83  and  _84
REMARK   35  A    between atoms: _83  and  _86
REMARK   36  A    between atoms: _86  and  _87
REMARK   37  A    between atoms: _87  and  _88
REMARK   38  A    between atoms: _88  and  _89
REMARK   39  A    between atoms: _98  and  _100
REMARK   40  A    between atoms: _100  and  _101
REMARK   41  A    between atoms: _100  and  _103
REMARK   42  A    between atoms: _103  and  _104
REMARK   43  A    between atoms: _104  and  _105
REMARK   44  A    between atoms: _105  and  _106
REMARK   45  A    between atoms: _106  and  _107
REMARK   46  A    between atoms: _111  and  _113
REMARK   47  A    between atoms: _113  and  _114
REMARK   48  A    between atoms: _113  and  _116
REMARK   49  A    between atoms: _119  and  _121
REMARK   50  A    between atoms: _121  and  _122
REMARK   51  A    between atoms: _121  and  _124
REMARK   52  A    between atoms: _124  and  _125
REMARK   53  A    between atoms: _130  and  _132
REMARK   54  A    between atoms: _132  and  _133
REMARK   55  A    between atoms: _132  and  _135
REMARK   56  A    between atoms: _135  and  _136
REMARK   57  A    between atoms: _139  and  _141
REMARK   58  A    between atoms: _141  and  _142
REMARK   59  A    between atoms: _141  and  _144
REMARK   60  A    between atoms: _147  and  _149
REMARK   61  A    between atoms: _149  and  _150
REMARK   62  A    between atoms: _153  and  _155
REMARK   63  A    between atoms: _162  and  _165
REMARK   64  A    between atoms: _165  and  _166
REMARK   65  A    between atoms: _166  and  _167
REMARK   66  A    between atoms: _167  and  _168
REMARK   67  A    between atoms: _168  and  _169
REMARK   68  A    between atoms: _175  and  _178
REMARK   69  A    between atoms: _178  and  _179
REMARK   70  A    between atoms: _191  and  _194
REMARK   71  A    between atoms: _194  and  _195
REMARK   72  A    between atoms: _195  and  _196
REMARK   73  A    between atoms: _203  and  _206
REMARK   74  A    between atoms: _206  and  _207
REMARK   75  A    between atoms: _212  and  _215
REMARK   76  A    between atoms: _215  and  _216
REMARK   77  A    between atoms: _223  and  _224
REMARK   78  A    between atoms: _228  and  _230
REMARK   79  A    between atoms: _230  and  _231
REMARK   80  A    between atoms: _230  and  _233
REMARK   81  A    between atoms: _233  and  _234
REMARK   82  A    between atoms: _239  and  _240
REMARK   83  A    between atoms: _242  and  _244
REMARK   84  A    between atoms: _244  and  _245
REMARK   85  A    between atoms: _244  and  _247
REMARK   86  A    between atoms: _250  and  _252
REMARK   87  A    between atoms: _252  and  _253
REMARK   88  A    between atoms: _256  and  _258
REMARK   89  A    between atoms: _258  and  _259
REMARK   90  A    between atoms: _258  and  _261
REMARK   91  A    between atoms: _263  and  _265
REMARK   92  A    between atoms: _265  and  _266
REMARK   93  A    between atoms: _265  and  _268
REMARK   94  A    between atoms: _268  and  _269
REMARK   95  A    between atoms: _269  and  _270
REMARK   96  A    between atoms: _273  and  _275
REMARK   97  A    between atoms: _275  and  _276
REMARK   98  A    between atoms: _275  and  _278
REMARK   99  A    between atoms: _282  and  _283
REMARK  100  A    between atoms: _288  and  _290
REMARK  101  A    between atoms: _290  and  _291
REMARK  102  A    between atoms: _290  and  _293
REMARK  103  A    between atoms: _296  and  _298
REMARK  104  A    between atoms: _298  and  _299
REMARK  105  A    between atoms: _298  and  _301
REMARK  106  A    between atoms: _301  and  _302
REMARK  107  A    between atoms: _307  and  _309
REMARK  108  A    between atoms: _309  and  _310
REMARK  109  A    between atoms: _309  and  _312
REMARK  110  A    between atoms: _312  and  _313
REMARK  111  A    between atoms: _319  and  _321
REMARK  112  A    between atoms: _321  and  _322
REMARK  113  A    between atoms: _321  and  _324
REMARK  114  A    between atoms: _324  and  _325
REMARK  115  A    between atoms: _328  and  _330
REMARK  116  A    between atoms: _330  and  _331
REMARK                            x       y       z     vdW  Elec       q    Type
REMARK                         _______ _______ _______ _____ _____    ______ ____
ROOT
ATOM      1  O   HOH     1      40.824   1.342  28.461  0.00  0.00    +0.000 OA
ENDROOT
TORSDOF 0
REMARK  Name = ../refined-set-2016/1z6s/1z6s_pocket.pdb
REMARK  116 active torsions:
REMARK  status: ('A' for Active; 'I' for Inactive)
REMARK    1  A    between atoms: _1  and  _3
REMARK    2  A    between atoms: _3  and  _4
REMARK    3  A    between atoms: _7  and  _9
REMARK    4  A    between atoms: _9  and  _10
REMARK    5  A    between atoms: _9  and  _12
REMARK    6  A    between atoms: _12  and  _13
REMARK    7  A    between atoms: _13  and  _14
REMARK    8  A    between atoms: _14  and  _15
REMARK    9  A    between atoms: _15  and  _16
REMARK   10  A    between atoms: _20  and  _22
REMARK   11  A    between atoms: _22  and  _23
REMARK   12  A    between atoms: _22  and  _25
REMARK   13  A    between atoms: _25  and  _26
REMARK   14  A    between atoms: _32  and  _34
REMARK   15  A    between atoms: _34  and  _35
REMARK   16  A    between atoms: _34  and  _37
REMARK   17  A    between atoms: _37  and  _38
REMARK   18  A    between atoms: _38  and  _39
REMARK   19  A    between atoms: _39  and  _40
REMARK   20  A    between atoms: _49  and  _51
REMARK   21  A    between atoms: _51  and  _52
REMARK   22  A    between atoms: _51  and  _54
REMARK   23  A    between atoms: _54  and  _55
REMARK   24  A    between atoms: _55  and  _56
REMARK   25  A    between atoms: _61  and  _63
REMARK   26  A    between atoms: _63  and  _64
REMARK   27  A    between atoms: _63  and  _66
REMARK   28  A    between atoms: _66  and  _67
REMARK   29  A    between atoms: _72  and  _74
REMARK   30  A    between atoms: _74  and  _75
REMARK   31  A    between atoms: _74  and  _77
REMARK   32  A    between atoms: _77  and  _78
REMARK   33  A    between atoms: _81  and  _83
REMARK   34  A    between atoms: _83  and  _84
REMARK   35  A    between atoms: _83  and  _86
REMARK   36  A    between atoms: _86  and  _87
REMARK   37  A    between atoms: _87  and  _88
REMARK   38  A    between atoms: _88  and  _89
REMARK   39  A    between atoms: _98  and  _100
REMARK   40  A    between atoms: _100  and  _101
REMARK   41  A    between atoms: _100  and  _103
REMARK   42  A    between atoms: _103  and  _104
REMARK   43  A    between atoms: _104  and  _105
REMARK   44  A    between atoms: _105  and  _106
REMARK   45  A    between atoms: _106  and  _107
REMARK   46  A    between atoms: _111  and  _113
REMARK   47  A    between atoms: _113  and  _114
REMARK   48  A    between atoms: _113  and  _116
REMARK   49  A    between atoms: _119  and  _121
REMARK   50  A    between atoms: _121  and  _122
REMARK   51  A    between atoms: _121  and  _124
REMARK   52  A    between atoms: _124  and  _125
REMARK   53  A    between atoms: _130  and  _132
REMARK   54  A    between atoms: _132  and  _133
REMARK   55  A    between atoms: _132  and  _135
REMARK   56  A    between atoms: _135  and  _136
REMARK   57  A    between atoms: _139  and  _141
REMARK   58  A    between atoms: _141  and  _142
REMARK   59  A    between atoms: _141  and  _144
REMARK   60  A    between atoms: _147  and  _149
REMARK   61  A    between atoms: _149  and  _150
REMARK   62  A    between atoms: _153  and  _155
REMARK   63  A    between atoms: _162  and  _165
REMARK   64  A    between atoms: _165  and  _166
REMARK   65  A    between atoms: _166  and  _167
REMARK   66  A    between atoms: _167  and  _168
REMARK   67  A    between atoms: _168  and  _169
REMARK   68  A    between atoms: _175  and  _178
REMARK   69  A    between atoms: _178  and  _179
REMARK   70  A    between atoms: _191  and  _194
REMARK   71  A    between atoms: _194  and  _195
REMARK   72  A    between atoms: _195  and  _196
REMARK   73  A    between atoms: _203  and  _206
REMARK   74  A    between atoms: _206  and  _207
REMARK   75  A    between atoms: _212  and  _215
REMARK   76  A    between atoms: _215  and  _216
REMARK   77  A    between atoms: _223  and  _224
REMARK   78  A    between atoms: _228  and  _230
REMARK   79  A    between atoms: _230  and  _231
REMARK   80  A    between atoms: _230  and  _233
REMARK   81  A    between atoms: _233  and  _234
REMARK   82  A    between atoms: _239  and  _240
REMARK   83  A    between atoms: _242  and  _244
REMARK   84  A    between atoms: _244  and  _245
REMARK   85  A    between atoms: _244  and  _247
REMARK   86  A    between atoms: _250  and  _252
REMARK   87  A    between atoms: _252  and  _253
REMARK   88  A    between atoms: _256  and  _258
REMARK   89  A    between atoms: _258  and  _259
REMARK   90  A    between atoms: _258  and  _261
REMARK   91  A    between atoms: _263  and  _265
REMARK   92  A    between atoms: _265  and  _266
REMARK   93  A    between atoms: _265  and  _268
REMARK   94  A    between atoms: _268  and  _269
REMARK   95  A    between atoms: _269  and  _270
REMARK   96  A    between atoms: _273  and  _275
REMARK   97  A    between atoms: _275  and  _276
REMARK   98  A    between atoms: _275  and  _278
REMARK   99  A    between atoms: _282  and  _283
REMARK  100  A    between atoms: _288  and  _290
REMARK  101  A    between atoms: _290  and  _291
REMARK  102  A    between atoms: _290  and  _293
REMARK  103  A    between atoms: _296  and  _298
REMARK  104  A    between atoms: _298  and  _299
REMARK  105  A    between atoms: _298  and  _301
REMARK  106  A    between atoms: _301  and  _302
REMARK  107  A    between atoms: _307  and  _309
REMARK  108  A    between atoms: _309  and  _310
REMARK  109  A    between atoms: _309  and  _312
REMARK  110  A    between atoms: _312  and  _313
REMARK  111  A    between atoms: _319  and  _321
REMARK  112  A    between atoms: _321  and  _322
REMARK  113  A    between atoms: _321  and  _324
REMARK  114  A    between atoms: _324  and  _325
REMARK  115  A    between atoms: _328  and  _330
REMARK  116  A    between atoms: _330  and  _331
REMARK                            x       y       z     vdW  Elec       q    Type
REMARK                         _______ _______ _______ _____ _____    ______ ____
ROOT
ATOM      1  O   HOH     1      40.167   0.740  18.161  0.00  0.00    +0.000 OA
ENDROOT
TORSDOF 0
REMARK  Name = ../refined-set-2016/1z6s/1z6s_pocket.pdb
REMARK  116 active torsions:
REMARK  status: ('A' for Active; 'I' for Inactive)
REMARK    1  A    between atoms: _1  and  _3
REMARK    2  A    between atoms: _3  and  _4
REMARK    3  A    between atoms: _7  and  _9
REMARK    4  A    between atoms: _9  and  _10
REMARK    5  A    between atoms: _9  and  _12
REMARK    6  A    between atoms: _12  and  _13
REMARK    7  A    between atoms: _13  and  _14
REMARK    8  A    between atoms: _14  and  _15
REMARK    9  A    between atoms: _15  and  _16
REMARK   10  A    between atoms: _20  and  _22
REMARK   11  A    between atoms: _22  and  _23
REMARK   12  A    between atoms: _22  and  _25
REMARK   13  A    between atoms: _25  and  _26
REMARK   14  A    between atoms: _32  and  _34
REMARK   15  A    between atoms: _34  and  _35
REMARK   16  A    between atoms: _34  and  _37
REMARK   17  A    between atoms: _37  and  _38
REMARK   18  A    between atoms: _38  and  _39
REMARK   19  A    between atoms: _39  and  _40
REMARK   20  A    between atoms: _49  and  _51
REMARK   21  A    between atoms: _51  and  _52
REMARK   22  A    between atoms: _51  and  _54
REMARK   23  A    between atoms: _54  and  _55
REMARK   24  A    between atoms: _55  and  _56
REMARK   25  A    between atoms: _61  and  _63
REMARK   26  A    between atoms: _63  and  _64
REMARK   27  A    between atoms: _63  and  _66
REMARK   28  A    between atoms: _66  and  _67
REMARK   29  A    between atoms: _72  and  _74
REMARK   30  A    between atoms: _74  and  _75
REMARK   31  A    between atoms: _74  and  _77
REMARK   32  A    between atoms: _77  and  _78
REMARK   33  A    between atoms: _81  and  _83
REMARK   34  A    between atoms: _83  and  _84
REMARK   35  A    between atoms: _83  and  _86
REMARK   36  A    between atoms: _86  and  _87
REMARK   37  A    between atoms: _87  and  _88
REMARK   38  A    between atoms: _88  and  _89
REMARK   39  A    between atoms: _98  and  _100
REMARK   40  A    between atoms: _100  and  _101
REMARK   41  A    between atoms: _100  and  _103
REMARK   42  A    between atoms: _103  and  _104
REMARK   43  A    between atoms: _104  and  _105
REMARK   44  A    between atoms: _105  and  _106
REMARK   45  A    between atoms: _106  and  _107
REMARK   46  A    between atoms: _111  and  _113
REMARK   47  A    between atoms: _113  and  _114
REMARK   48  A    between atoms: _113  and  _116
REMARK   49  A    between atoms: _119  and  _121
REMARK   50  A    between atoms: _121  and  _122
REMARK   51  A    between atoms: _121  and  _124
REMARK   52  A    between atoms: _124  and  _125
REMARK   53  A    between atoms: _130  and  _132
REMARK   54  A    between atoms: _132  and  _133
REMARK   55  A    between atoms: _132  and  _135
REMARK   56  A    between atoms: _135  and  _136
REMARK   57  A    between atoms: _139  and  _141
REMARK   58  A    between atoms: _141  and  _142
REMARK   59  A    between atoms: _141  and  _144
REMARK   60  A    between atoms: _147  and  _149
REMARK   61  A    between atoms: _149  and  _150
REMARK   62  A    between atoms: _153  and  _155
REMARK   63  A    between atoms: _162  and  _165
REMARK   64  A    between atoms: _165  and  _166
REMARK   65  A    between atoms: _166  and  _167
REMARK   66  A    between atoms: _167  and  _168
REMARK   67  A    between atoms: _168  and  _169
REMARK   68  A    between atoms: _175  and  _178
REMARK   69  A    between atoms: _178  and  _179
REMARK   70  A    between atoms: _191  and  _194
REMARK   71  A    between atoms: _194  and  _195
REMARK   72  A    between atoms: _195  and  _196
REMARK   73  A    between atoms: _203  and  _206
REMARK   74  A    between atoms: _206  and  _207
REMARK   75  A    between atoms: _212  and  _215
REMARK   76  A    between atoms: _215  and  _216
REMARK   77  A    between atoms: _223  and  _224
REMARK   78  A    between atoms: _228  and  _230
REMARK   79  A    between atoms: _230  and  _231
REMARK   80  A    between atoms: _230  and  _233
REMARK   81  A    between atoms: _233  and  _234
REMARK   82  A    between atoms: _239  and  _240
REMARK   83  A    between atoms: _242  and  _244
REMARK   84  A    between atoms: _244  and  _245
REMARK   85  A    between atoms: _244  and  _247
REMARK   86  A    between atoms: _250  and  _252
REMARK   87  A    between atoms: _252  and  _253
REMARK   88  A    between atoms: _256  and  _258
REMARK   89  A    between atoms: _258  and  _259
REMARK   90  A    between atoms: _258  and  _261
REMARK   91  A    between atoms: _263  and  _265
REMARK   92  A    between atoms: _265  and  _266
REMARK   93  A    between atoms: _265  and  _268
REMARK   94  A    between atoms: _268  and  _269
REMARK   95  A    between atoms: _269  and  _270
REMARK   96  A    between atoms: _273  and  _275
REMARK   97  A    between atoms: _275  and  _276
REMARK   98  A    between atoms: _275  and  _278
REMARK   99  A    between atoms: _282  and  _283
REMARK  100  A    between atoms: _288  and  _290
REMARK  101  A    between atoms: _290  and  _291
REMARK  102  A    between atoms: _290  and  _293
REMARK  103  A    between atoms: _296  and  _298
REMARK  104  A    between atoms: _298  and  _299
REMARK  105  A    between atoms: _298  and  _301
REMARK  106  A    between atoms: _301  and  _302
REMARK  107  A    between atoms: _307  and  _309
REMARK  108  A    between atoms: _309  and  _310
REMARK  109  A    between atoms: _309  and  _312
REMARK  110  A    between atoms: _312  and  _313
REMARK  111  A    between atoms: _319  and  _321
REMARK  112  A    between atoms: _321  and  _322
REMARK  113  A    between atoms: _321  and  _324
REMARK  114  A    between atoms: _324  and  _325
REMARK  115  A    between atoms: _328  and  _330
REMARK  116  A    between atoms: _330  and  _331
REMARK                            x       y       z     vdW  Elec       q    Type
REMARK                         _______ _______ _______ _____ _____    ______ ____
ROOT
ATOM      1  O   HOH     1      39.209  -0.932  11.351  0.00  0.00    +0.000 OA
ENDROOT
TORSDOF 0
REMARK  Name = ../refined-set-2016/1z6s/1z6s_pocket.pdb
REMARK  116 active torsions:
REMARK  status: ('A' for Active; 'I' for Inactive)
REMARK    1  A    between atoms: _1  and  _3
REMARK    2  A    between atoms: _3  and  _4
REMARK    3  A    between atoms: _7  and  _9
REMARK    4  A    between atoms: _9  and  _10
REMARK    5  A    between atoms: _9  and  _12
REMARK    6  A    between atoms: _12  and  _13
REMARK    7  A    between atoms: _13  and  _14
REMARK    8  A    between atoms: _14  and  _15
REMARK    9  A    between atoms: _15  and  _16
REMARK   10  A    between atoms: _20  and  _22
REMARK   11  A    between atoms: _22  and  _23
REMARK   12  A    between atoms: _22  and  _25
REMARK   13  A    between atoms: _25  and  _26
REMARK   14  A    between atoms: _32  and  _34
REMARK   15  A    between atoms: _34  and  _35
REMARK   16  A    between atoms: _34  and  _37
REMARK   17  A    between atoms: _37  and  _38
REMARK   18  A    between atoms: _38  and  _39
REMARK   19  A    between atoms: _39  and  _40
REMARK   20  A    between atoms: _49  and  _51
REMARK   21  A    between atoms: _51  and  _52
REMARK   22  A    between atoms: _51  and  _54
REMARK   23  A    between atoms: _54  and  _55
REMARK   24  A    between atoms: _55  and  _56
REMARK   25  A    between atoms: _61  and  _63
REMARK   26  A    between atoms: _63  and  _64
REMARK   27  A    between atoms: _63  and  _66
REMARK   28  A    between atoms: _66  and  _67
REMARK   29  A    between atoms: _72  and  _74
REMARK   30  A    between atoms: _74  and  _75
REMARK   31  A    between atoms: _74  and  _77
REMARK   32  A    between atoms: _77  and  _78
REMARK   33  A    between atoms: _81  and  _83
REMARK   34  A    between atoms: _83  and  _84
REMARK   35  A    between atoms: _83  and  _86
REMARK   36  A    between atoms: _86  and  _87
REMARK   37  A    between atoms: _87  and  _88
REMARK   38  A    between atoms: _88  and  _89
REMARK   39  A    between atoms: _98  and  _100
REMARK   40  A    between atoms: _100  and  _101
REMARK   41  A    between atoms: _100  and  _103
REMARK   42  A    between atoms: _103  and  _104
REMARK   43  A    between atoms: _104  and  _105
REMARK   44  A    between atoms: _105  and  _106
REMARK   45  A    between atoms: _106  and  _107
REMARK   46  A    between atoms: _111  and  _113
REMARK   47  A    between atoms: _113  and  _114
REMARK   48  A    between atoms: _113  and  _116
REMARK   49  A    between atoms: _119  and  _121
REMARK   50  A    between atoms: _121  and  _122
REMARK   51  A    between atoms: _121  and  _124
REMARK   52  A    between atoms: _124  and  _125
REMARK   53  A    between atoms: _130  and  _132
REMARK   54  A    between atoms: _132  and  _133
REMARK   55  A    between atoms: _132  and  _135
REMARK   56  A    between atoms: _135  and  _136
REMARK   57  A    between atoms: _139  and  _141
REMARK   58  A    between atoms: _141  and  _142
REMARK   59  A    between atoms: _141  and  _144
REMARK   60  A    between atoms: _147  and  _149
REMARK   61  A    between atoms: _149  and  _150
REMARK   62  A    between atoms: _153  and  _155
REMARK   63  A    between atoms: _162  and  _165
REMARK   64  A    between atoms: _165  and  _166
REMARK   65  A    between atoms: _166  and  _167
REMARK   66  A    between atoms: _167  and  _168
REMARK   67  A    between atoms: _168  and  _169
REMARK   68  A    between atoms: _175  and  _178
REMARK   69  A    between atoms: _178  and  _179
REMARK   70  A    between atoms: _191  and  _194
REMARK   71  A    between atoms: _194  and  _195
REMARK   72  A    between atoms: _195  and  _196
REMARK   73  A    between atoms: _203  and  _206
REMARK   74  A    between atoms: _206  and  _207
REMARK   75  A    between atoms: _212  and  _215
REMARK   76  A    between atoms: _215  and  _216
REMARK   77  A    between atoms: _223  and  _224
REMARK   78  A    between atoms: _228  and  _230
REMARK   79  A    between atoms: _230  and  _231
REMARK   80  A    between atoms: _230  and  _233
REMARK   81  A    between atoms: _233  and  _234
REMARK   82  A    between atoms: _239  and  _240
REMARK   83  A    between atoms: _242  and  _244
REMARK   84  A    between atoms: _244  and  _245
REMARK   85  A    between atoms: _244  and  _247
REMARK   86  A    between atoms: _250  and  _252
REMARK   87  A    between atoms: _252  and  _253
REMARK   88  A    between atoms: _256  and  _258
REMARK   89  A    between atoms: _258  and  _259
REMARK   90  A    between atoms: _258  and  _261
REMARK   91  A    between atoms: _263  and  _265
REMARK   92  A    between atoms: _265  and  _266
REMARK   93  A    between atoms: _265  and  _268
REMARK   94  A    between atoms: _268  and  _269
REMARK   95  A    between atoms: _269  and  _270
REMARK   96  A    between atoms: _273  and  _275
REMARK   97  A    between atoms: _275  and  _276
REMARK   98  A    between atoms: _275  and  _278
REMARK   99  A    between atoms: _282  and  _283
REMARK  100  A    between atoms: _288  and  _290
REMARK  101  A    between atoms: _290  and  _291
REMARK  102  A    between atoms: _290  and  _293
REMARK  103  A    between atoms: _296  and  _298
REMARK  104  A    between atoms: _298  and  _299
REMARK  105  A    between atoms: _298  and  _301
REMARK  106  A    between atoms: _301  and  _302
REMARK  107  A    between atoms: _307  and  _309
REMARK  108  A    between atoms: _309  and  _310
REMARK  109  A    between atoms: _309  and  _312
REMARK  110  A    between atoms: _312  and  _313
REMARK  111  A    between atoms: _319  and  _321
REMARK  112  A    between atoms: _321  and  _322
REMARK  113  A    between atoms: _321  and  _324
REMARK  114  A    between atoms: _324  and  _325
REMARK  115  A    between atoms: _328  and  _330
REMARK  116  A    between atoms: _330  and  _331
REMARK                            x       y       z     vdW  Elec       q    Type
REMARK                         _______ _______ _______ _____ _____    ______ ____
ROOT
ATOM      1  O   HOH     1      36.525  10.350  15.219  0.00  0.00    +0.000 OA
ENDROOT
TORSDOF 0
REMARK  Name = ../refined-set-2016/1z6s/1z6s_pocket.pdb
REMARK  116 active torsions:
REMARK  status: ('A' for Active; 'I' for Inactive)
REMARK    1  A    between atoms: _1  and  _3
REMARK    2  A    between atoms: _3  and  _4
REMARK    3  A    between atoms: _7  and  _9
REMARK    4  A    between atoms: _9  and  _10
REMARK    5  A    between atoms: _9  and  _12
REMARK    6  A    between atoms: _12  and  _13
REMARK    7  A    between atoms: _13  and  _14
REMARK    8  A    between atoms: _14  and  _15
REMARK    9  A    between atoms: _15  and  _16
REMARK   10  A    between atoms: _20  and  _22
REMARK   11  A    between atoms: _22  and  _23
REMARK   12  A    between atoms: _22  and  _25
REMARK   13  A    between atoms: _25  and  _26
REMARK   14  A    between atoms: _32  and  _34
REMARK   15  A    between atoms: _34  and  _35
REMARK   16  A    between atoms: _34  and  _37
REMARK   17  A    between atoms: _37  and  _38
REMARK   18  A    between atoms: _38  and  _39
REMARK   19  A    between atoms: _39  and  _40
REMARK   20  A    between atoms: _49  and  _51
REMARK   21  A    between atoms: _51  and  _52
REMARK   22  A    between atoms: _51  and  _54
REMARK   23  A    between atoms: _54  and  _55
REMARK   24  A    between atoms: _55  and  _56
REMARK   25  A    between atoms: _61  and  _63
REMARK   26  A    between atoms: _63  and  _64
REMARK   27  A    between atoms: _63  and  _66
REMARK   28  A    between atoms: _66  and  _67
REMARK   29  A    between atoms: _72  and  _74
REMARK   30  A    between atoms: _74  and  _75
REMARK   31  A    between atoms: _74  and  _77
REMARK   32  A    between atoms: _77  and  _78
REMARK   33  A    between atoms: _81  and  _83
REMARK   34  A    between atoms: _83  and  _84
REMARK   35  A    between atoms: _83  and  _86
REMARK   36  A    between atoms: _86  and  _87
REMARK   37  A    between atoms: _87  and  _88
REMARK   38  A    between atoms: _88  and  _89
REMARK   39  A    between atoms: _98  and  _100
REMARK   40  A    between atoms: _100  and  _101
REMARK   41  A    between atoms: _100  and  _103
REMARK   42  A    between atoms: _103  and  _104
REMARK   43  A    between atoms: _104  and  _105
REMARK   44  A    between atoms: _105  and  _106
REMARK   45  A    between atoms: _106  and  _107
REMARK   46  A    between atoms: _111  and  _113
REMARK   47  A    between atoms: _113  and  _114
REMARK   48  A    between atoms: _113  and  _116
REMARK   49  A    between atoms: _119  and  _121
REMARK   50  A    between atoms: _121  and  _122
REMARK   51  A    between atoms: _121  and  _124
REMARK   52  A    between atoms: _124  and  _125
REMARK   53  A    between atoms: _130  and  _132
REMARK   54  A    between atoms: _132  and  _133
REMARK   55  A    between atoms: _132  and  _135
REMARK   56  A    between atoms: _135  and  _136
REMARK   57  A    between atoms: _139  and  _141
REMARK   58  A    between atoms: _141  and  _142
REMARK   59  A    between atoms: _141  and  _144
REMARK   60  A    between atoms: _147  and  _149
REMARK   61  A    between atoms: _149  and  _150
REMARK   62  A    between atoms: _153  and  _155
REMARK   63  A    between atoms: _162  and  _165
REMARK   64  A    between atoms: _165  and  _166
REMARK   65  A    between atoms: _166  and  _167
REMARK   66  A    between atoms: _167  and  _168
REMARK   67  A    between atoms: _168  and  _169
REMARK   68  A    between atoms: _175  and  _178
REMARK   69  A    between atoms: _178  and  _179
REMARK   70  A    between atoms: _191  and  _194
REMARK   71  A    between atoms: _194  and  _195
REMARK   72  A    between atoms: _195  and  _196
REMARK   73  A    between atoms: _203  and  _206
REMARK   74  A    between atoms: _206  and  _207
REMARK   75  A    between atoms: _212  and  _215
REMARK   76  A    between atoms: _215  and  _216
REMARK   77  A    between atoms: _223  and  _224
REMARK   78  A    between atoms: _228  and  _230
REMARK   79  A    between atoms: _230  and  _231
REMARK   80  A    between atoms: _230  and  _233
REMARK   81  A    between atoms: _233  and  _234
REMARK   82  A    between atoms: _239  and  _240
REMARK   83  A    between atoms: _242  and  _244
REMARK   84  A    between atoms: _244  and  _245
REMARK   85  A    between atoms: _244  and  _247
REMARK   86  A    between atoms: _250  and  _252
REMARK   87  A    between atoms: _252  and  _253
REMARK   88  A    between atoms: _256  and  _258
REMARK   89  A    between atoms: _258  and  _259
REMARK   90  A    between atoms: _258  and  _261
REMARK   91  A    between atoms: _263  and  _265
REMARK   92  A    between atoms: _265  and  _266
REMARK   93  A    between atoms: _265  and  _268
REMARK   94  A    between atoms: _268  and  _269
REMARK   95  A    between atoms: _269  and  _270
REMARK   96  A    between atoms: _273  and  _275
REMARK   97  A    between atoms: _275  and  _276
REMARK   98  A    between atoms: _275  and  _278
REMARK   99  A    between atoms: _282  and  _283
REMARK  100  A    between atoms: _288  and  _290
REMARK  101  A    between atoms: _290  and  _291
REMARK  102  A    between atoms: _290  and  _293
REMARK  103  A    between atoms: _296  and  _298
REMARK  104  A    between atoms: _298  and  _299
REMARK  105  A    between atoms: _298  and  _301
REMARK  106  A    between atoms: _301  and  _302
REMARK  107  A    between atoms: _307  and  _309
REMARK  108  A    between atoms: _309  and  _310
REMARK  109  A    between atoms: _309  and  _312
REMARK  110  A    between atoms: _312  and  _313
REMARK  111  A    between atoms: _319  and  _321
REMARK  112  A    between atoms: _321  and  _322
REMARK  113  A    between atoms: _321  and  _324
REMARK  114  A    between atoms: _324  and  _325
REMARK  115  A    between atoms: _328  and  _330
REMARK  116  A    between atoms: _330  and  _331
REMARK                            x       y       z     vdW  Elec       q    Type
REMARK                         _______ _______ _______ _____ _____    ______ ____
ROOT
ATOM      1  O   HOH     1      34.451  -5.214  13.157  0.00  0.00    +0.000 OA
ENDROOT
TORSDOF 0
REMARK  Name = ../refined-set-2016/1z6s/1z6s_pocket.pdb
REMARK  116 active torsions:
REMARK  status: ('A' for Active; 'I' for Inactive)
REMARK    1  A    between atoms: _1  and  _3
REMARK    2  A    between atoms: _3  and  _4
REMARK    3  A    between atoms: _7  and  _9
REMARK    4  A    between atoms: _9  and  _10
REMARK    5  A    between atoms: _9  and  _12
REMARK    6  A    between atoms: _12  and  _13
REMARK    7  A    between atoms: _13  and  _14
REMARK    8  A    between atoms: _14  and  _15
REMARK    9  A    between atoms: _15  and  _16
REMARK   10  A    between atoms: _20  and  _22
REMARK   11  A    between atoms: _22  and  _23
REMARK   12  A    between atoms: _22  and  _25
REMARK   13  A    between atoms: _25  and  _26
REMARK   14  A    between atoms: _32  and  _34
REMARK   15  A    between atoms: _34  and  _35
REMARK   16  A    between atoms: _34  and  _37
REMARK   17  A    between atoms: _37  and  _38
REMARK   18  A    between atoms: _38  and  _39
REMARK   19  A    between atoms: _39  and  _40
REMARK   20  A    between atoms: _49  and  _51
REMARK   21  A    between atoms: _51  and  _52
REMARK   22  A    between atoms: _51  and  _54
REMARK   23  A    between atoms: _54  and  _55
REMARK   24  A    between atoms: _55  and  _56
REMARK   25  A    between atoms: _61  and  _63
REMARK   26  A    between atoms: _63  and  _64
REMARK   27  A    between atoms: _63  and  _66
REMARK   28  A    between atoms: _66  and  _67
REMARK   29  A    between atoms: _72  and  _74
REMARK   30  A    between atoms: _74  and  _75
REMARK   31  A    between atoms: _74  and  _77
REMARK   32  A    between atoms: _77  and  _78
REMARK   33  A    between atoms: _81  and  _83
REMARK   34  A    between atoms: _83  and  _84
REMARK   35  A    between atoms: _83  and  _86
REMARK   36  A    between atoms: _86  and  _87
REMARK   37  A    between atoms: _87  and  _88
REMARK   38  A    between atoms: _88  and  _89
REMARK   39  A    between atoms: _98  and  _100
REMARK   40  A    between atoms: _100  and  _101
REMARK   41  A    between atoms: _100  and  _103
REMARK   42  A    between atoms: _103  and  _104
REMARK   43  A    between atoms: _104  and  _105
REMARK   44  A    between atoms: _105  and  _106
REMARK   45  A    between atoms: _106  and  _107
REMARK   46  A    between atoms: _111  and  _113
REMARK   47  A    between atoms: _113  and  _114
REMARK   48  A    between atoms: _113  and  _116
REMARK   49  A    between atoms: _119  and  _121
REMARK   50  A    between atoms: _121  and  _122
REMARK   51  A    between atoms: _121  and  _124
REMARK   52  A    between atoms: _124  and  _125
REMARK   53  A    between atoms: _130  and  _132
REMARK   54  A    between atoms: _132  and  _133
REMARK   55  A    between atoms: _132  and  _135
REMARK   56  A    between atoms: _135  and  _136
REMARK   57  A    between atoms: _139  and  _141
REMARK   58  A    between atoms: _141  and  _142
REMARK   59  A    between atoms: _141  and  _144
REMARK   60  A    between atoms: _147  and  _149
REMARK   61  A    between atoms: _149  and  _150
REMARK   62  A    between atoms: _153  and  _155
REMARK   63  A    between atoms: _162  and  _165
REMARK   64  A    between atoms: _165  and  _166
REMARK   65  A    between atoms: _166  and  _167
REMARK   66  A    between atoms: _167  and  _168
REMARK   67  A    between atoms: _168  and  _169
REMARK   68  A    between atoms: _175  and  _178
REMARK   69  A    between atoms: _178  and  _179
REMARK   70  A    between atoms: _191  and  _194
REMARK   71  A    between atoms: _194  and  _195
REMARK   72  A    between atoms: _195  and  _196
REMARK   73  A    between atoms: _203  and  _206
REMARK   74  A    between atoms: _206  and  _207
REMARK   75  A    between atoms: _212  and  _215
REMARK   76  A    between atoms: _215  and  _216
REMARK   77  A    between atoms: _223  and  _224
REMARK   78  A    between atoms: _228  and  _230
REMARK   79  A    between atoms: _230  and  _231
REMARK   80  A    between atoms: _230  and  _233
REMARK   81  A    between atoms: _233  and  _234
REMARK   82  A    between atoms: _239  and  _240
REMARK   83  A    between atoms: _242  and  _244
REMARK   84  A    between atoms: _244  and  _245
REMARK   85  A    between atoms: _244  and  _247
REMARK   86  A    between atoms: _250  and  _252
REMARK   87  A    between atoms: _252  and  _253
REMARK   88  A    between atoms: _256  and  _258
REMARK   89  A    between atoms: _258  and  _259
REMARK   90  A    between atoms: _258  and  _261
REMARK   91  A    between atoms: _263  and  _265
REMARK   92  A    between atoms: _265  and  _266
REMARK   93  A    between atoms: _265  and  _268
REMARK   94  A    between atoms: _268  and  _269
REMARK   95  A    between atoms: _269  and  _270
REMARK   96  A    between atoms: _273  and  _275
REMARK   97  A    between atoms: _275  and  _276
REMARK   98  A    between atoms: _275  and  _278
REMARK   99  A    between atoms: _282  and  _283
REMARK  100  A    between atoms: _288  and  _290
REMARK  101  A    between atoms: _290  and  _291
REMARK  102  A    between atoms: _290  and  _293
REMARK  103  A    between atoms: _296  and  _298
REMARK  104  A    between atoms: _298  and  _299
REMARK  105  A    between atoms: _298  and  _301
REMARK  106  A    between atoms: _301  and  _302
REMARK  107  A    between atoms: _307  and  _309
REMARK  108  A    between atoms: _309  and  _310
REMARK  109  A    between atoms: _309  and  _312
REMARK  110  A    between atoms: _312  and  _313
REMARK  111  A    between atoms: _319  and  _321
REMARK  112  A    between atoms: _321  and  _322
REMARK  113  A    between atoms: _321  and  _324
REMARK  114  A    between atoms: _324  and  _325
REMARK  115  A    between atoms: _328  and  _330
REMARK  116  A    between atoms: _330  and  _331
REMARK                            x       y       z     vdW  Elec       q    Type
REMARK                         _______ _______ _______ _____ _____    ______ ____
ROOT
ATOM      1  O   HOH     1      37.211  -2.418  16.970  0.00  0.00    +0.000 OA
ENDROOT
TORSDOF 0
REMARK  Name = ../refined-set-2016/1z6s/1z6s_pocket.pdb
REMARK  116 active torsions:
REMARK  status: ('A' for Active; 'I' for Inactive)
REMARK    1  A    between atoms: _1  and  _3
REMARK    2  A    between atoms: _3  and  _4
REMARK    3  A    between atoms: _7  and  _9
REMARK    4  A    between atoms: _9  and  _10
REMARK    5  A    between atoms: _9  and  _12
REMARK    6  A    between atoms: _12  and  _13
REMARK    7  A    between atoms: _13  and  _14
REMARK    8  A    between atoms: _14  and  _15
REMARK    9  A    between atoms: _15  and  _16
REMARK   10  A    between atoms: _20  and  _22
REMARK   11  A    between atoms: _22  and  _23
REMARK   12  A    between atoms: _22  and  _25
REMARK   13  A    between atoms: _25  and  _26
REMARK   14  A    between atoms: _32  and  _34
REMARK   15  A    between atoms: _34  and  _35
REMARK   16  A    between atoms: _34  and  _37
REMARK   17  A    between atoms: _37  and  _38
REMARK   18  A    between atoms: _38  and  _39
REMARK   19  A    between atoms: _39  and  _40
REMARK   20  A    between atoms: _49  and  _51
REMARK   21  A    between atoms: _51  and  _52
REMARK   22  A    between atoms: _51  and  _54
REMARK   23  A    between atoms: _54  and  _55
REMARK   24  A    between atoms: _55  and  _56
REMARK   25  A    between atoms: _61  and  _63
REMARK   26  A    between atoms: _63  and  _64
REMARK   27  A    between atoms: _63  and  _66
REMARK   28  A    between atoms: _66  and  _67
REMARK   29  A    between atoms: _72  and  _74
REMARK   30  A    between atoms: _74  and  _75
REMARK   31  A    between atoms: _74  and  _77
REMARK   32  A    between atoms: _77  and  _78
REMARK   33  A    between atoms: _81  and  _83
REMARK   34  A    between atoms: _83  and  _84
REMARK   35  A    between atoms: _83  and  _86
REMARK   36  A    between atoms: _86  and  _87
REMARK   37  A    between atoms: _87  and  _88
REMARK   38  A    between atoms: _88  and  _89
REMARK   39  A    between atoms: _98  and  _100
REMARK   40  A    between atoms: _100  and  _101
REMARK   41  A    between atoms: _100  and  _103
REMARK   42  A    between atoms: _103  and  _104
REMARK   43  A    between atoms: _104  and  _105
REMARK   44  A    between atoms: _105  and  _106
REMARK   45  A    between atoms: _106  and  _107
REMARK   46  A    between atoms: _111  and  _113
REMARK   47  A    between atoms: _113  and  _114
REMARK   48  A    between atoms: _113  and  _116
REMARK   49  A    between atoms: _119  and  _121
REMARK   50  A    between atoms: _121  and  _122
REMARK   51  A    between atoms: _121  and  _124
REMARK   52  A    between atoms: _124  and  _125
REMARK   53  A    between atoms: _130  and  _132
REMARK   54  A    between atoms: _132  and  _133
REMARK   55  A    between atoms: _132  and  _135
REMARK   56  A    between atoms: _135  and  _136
REMARK   57  A    between atoms: _139  and  _141
REMARK   58  A    between atoms: _141  and  _142
REMARK   59  A    between atoms: _141  and  _144
REMARK   60  A    between atoms: _147  and  _149
REMARK   61  A    between atoms: _149  and  _150
REMARK   62  A    between atoms: _153  and  _155
REMARK   63  A    between atoms: _162  and  _165
REMARK   64  A    between atoms: _165  and  _166
REMARK   65  A    between atoms: _166  and  _167
REMARK   66  A    between atoms: _167  and  _168
REMARK   67  A    between atoms: _168  and  _169
REMARK   68  A    between atoms: _175  and  _178
REMARK   69  A    between atoms: _178  and  _179
REMARK   70  A    between atoms: _191  and  _194
REMARK   71  A    between atoms: _194  and  _195
REMARK   72  A    between atoms: _195  and  _196
REMARK   73  A    between atoms: _203  and  _206
REMARK   74  A    between atoms: _206  and  _207
REMARK   75  A    between atoms: _212  and  _215
REMARK   76  A    between atoms: _215  and  _216
REMARK   77  A    between atoms: _223  and  _224
REMARK   78  A    between atoms: _228  and  _230
REMARK   79  A    between atoms: _230  and  _231
REMARK   80  A    between atoms: _230  and  _233
REMARK   81  A    between atoms: _233  and  _234
REMARK   82  A    between atoms: _239  and  _240
REMARK   83  A    between atoms: _242  and  _244
REMARK   84  A    between atoms: _244  and  _245
REMARK   85  A    between atoms: _244  and  _247
REMARK   86  A    between atoms: _250  and  _252
REMARK   87  A    between atoms: _252  and  _253
REMARK   88  A    between atoms: _256  and  _258
REMARK   89  A    between atoms: _258  and  _259
REMARK   90  A    between atoms: _258  and  _261
REMARK   91  A    between atoms: _263  and  _265
REMARK   92  A    between atoms: _265  and  _266
REMARK   93  A    between atoms: _265  and  _268
REMARK   94  A    between atoms: _268  and  _269
REMARK   95  A    between atoms: _269  and  _270
REMARK   96  A    between atoms: _273  and  _275
REMARK   97  A    between atoms: _275  and  _276
REMARK   98  A    between atoms: _275  and  _278
REMARK   99  A    between atoms: _282  and  _283
REMARK  100  A    between atoms: _288  and  _290
REMARK  101  A    between atoms: _290  and  _291
REMARK  102  A    between atoms: _290  and  _293
REMARK  103  A    between atoms: _296  and  _298
REMARK  104  A    between atoms: _298  and  _299
REMARK  105  A    between atoms: _298  and  _301
REMARK  106  A    between atoms: _301  and  _302
REMARK  107  A    between atoms: _307  and  _309
REMARK  108  A    between atoms: _309  and  _310
REMARK  109  A    between atoms: _309  and  _312
REMARK  110  A    between atoms: _312  and  _313
REMARK  111  A    between atoms: _319  and  _321
REMARK  112  A    between atoms: _321  and  _322
REMARK  113  A    between atoms: _321  and  _324
REMARK  114  A    between atoms: _324  and  _325
REMARK  115  A    between atoms: _328  and  _330
REMARK  116  A    between atoms: _330  and  _331
REMARK                            x       y       z     vdW  Elec       q    Type
REMARK                         _______ _______ _______ _____ _____    ______ ____
ROOT
ATOM      1  O   HOH     1      37.143  12.924  14.289  0.00  0.00    +0.000 OA
ENDROOT
TORSDOF 0
REMARK  Name = ../refined-set-2016/1z6s/1z6s_pocket.pdb
REMARK  116 active torsions:
REMARK  status: ('A' for Active; 'I' for Inactive)
REMARK    1  A    between atoms: _1  and  _3
REMARK    2  A    between atoms: _3  and  _4
REMARK    3  A    between atoms: _7  and  _9
REMARK    4  A    between atoms: _9  and  _10
REMARK    5  A    between atoms: _9  and  _12
REMARK    6  A    between atoms: _12  and  _13
REMARK    7  A    between atoms: _13  and  _14
REMARK    8  A    between atoms: _14  and  _15
REMARK    9  A    between atoms: _15  and  _16
REMARK   10  A    between atoms: _20  and  _22
REMARK   11  A    between atoms: _22  and  _23
REMARK   12  A    between atoms: _22  and  _25
REMARK   13  A    between atoms: _25  and  _26
REMARK   14  A    between atoms: _32  and  _34
REMARK   15  A    between atoms: _34  and  _35
REMARK   16  A    between atoms: _34  and  _37
REMARK   17  A    between atoms: _37  and  _38
REMARK   18  A    between atoms: _38  and  _39
REMARK   19  A    between atoms: _39  and  _40
REMARK   20  A    between atoms: _49  and  _51
REMARK   21  A    between atoms: _51  and  _52
REMARK   22  A    between atoms: _51  and  _54
REMARK   23  A    between atoms: _54  and  _55
REMARK   24  A    between atoms: _55  and  _56
REMARK   25  A    between atoms: _61  and  _63
REMARK   26  A    between atoms: _63  and  _64
REMARK   27  A    between atoms: _63  and  _66
REMARK   28  A    between atoms: _66  and  _67
REMARK   29  A    between atoms: _72  and  _74
REMARK   30  A    between atoms: _74  and  _75
REMARK   31  A    between atoms: _74  and  _77
REMARK   32  A    between atoms: _77  and  _78
REMARK   33  A    between atoms: _81  and  _83
REMARK   34  A    between atoms: _83  and  _84
REMARK   35  A    between atoms: _83  and  _86
REMARK   36  A    between atoms: _86  and  _87
REMARK   37  A    between atoms: _87  and  _88
REMARK   38  A    between atoms: _88  and  _89
REMARK   39  A    between atoms: _98  and  _100
REMARK   40  A    between atoms: _100  and  _101
REMARK   41  A    between atoms: _100  and  _103
REMARK   42  A    between atoms: _103  and  _104
REMARK   43  A    between atoms: _104  and  _105
REMARK   44  A    between atoms: _105  and  _106
REMARK   45  A    between atoms: _106  and  _107
REMARK   46  A    between atoms: _111  and  _113
REMARK   47  A    between atoms: _113  and  _114
REMARK   48  A    between atoms: _113  and  _116
REMARK   49  A    between atoms: _119  and  _121
REMARK   50  A    between atoms: _121  and  _122
REMARK   51  A    between atoms: _121  and  _124
REMARK   52  A    between atoms: _124  and  _125
REMARK   53  A    between atoms: _130  and  _132
REMARK   54  A    between atoms: _132  and  _133
REMARK   55  A    between atoms: _132  and  _135
REMARK   56  A    between atoms: _135  and  _136
REMARK   57  A    between atoms: _139  and  _141
REMARK   58  A    between atoms: _141  and  _142
REMARK   59  A    between atoms: _141  and  _144
REMARK   60  A    between atoms: _147  and  _149
REMARK   61  A    between atoms: _149  and  _150
REMARK   62  A    between atoms: _153  and  _155
REMARK   63  A    between atoms: _162  and  _165
REMARK   64  A    between atoms: _165  and  _166
REMARK   65  A    between atoms: _166  and  _167
REMARK   66  A    between atoms: _167  and  _168
REMARK   67  A    between atoms: _168  and  _169
REMARK   68  A    between atoms: _175  and  _178
REMARK   69  A    between atoms: _178  and  _179
REMARK   70  A    between atoms: _191  and  _194
REMARK   71  A    between atoms: _194  and  _195
REMARK   72  A    between atoms: _195  and  _196
REMARK   73  A    between atoms: _203  and  _206
REMARK   74  A    between atoms: _206  and  _207
REMARK   75  A    between atoms: _212  and  _215
REMARK   76  A    between atoms: _215  and  _216
REMARK   77  A    between atoms: _223  and  _224
REMARK   78  A    between atoms: _228  and  _230
REMARK   79  A    between atoms: _230  and  _231
REMARK   80  A    between atoms: _230  and  _233
REMARK   81  A    between atoms: _233  and  _234
REMARK   82  A    between atoms: _239  and  _240
REMARK   83  A    between atoms: _242  and  _244
REMARK   84  A    between atoms: _244  and  _245
REMARK   85  A    between atoms: _244  and  _247
REMARK   86  A    between atoms: _250  and  _252
REMARK   87  A    between atoms: _252  and  _253
REMARK   88  A    between atoms: _256  and  _258
REMARK   89  A    between atoms: _258  and  _259
REMARK   90  A    between atoms: _258  and  _261
REMARK   91  A    between atoms: _263  and  _265
REMARK   92  A    between atoms: _265  and  _266
REMARK   93  A    between atoms: _265  and  _268
REMARK   94  A    between atoms: _268  and  _269
REMARK   95  A    between atoms: _269  and  _270
REMARK   96  A    between atoms: _273  and  _275
REMARK   97  A    between atoms: _275  and  _276
REMARK   98  A    between atoms: _275  and  _278
REMARK   99  A    between atoms: _282  and  _283
REMARK  100  A    between atoms: _288  and  _290
REMARK  101  A    between atoms: _290  and  _291
REMARK  102  A    between atoms: _290  and  _293
REMARK  103  A    between atoms: _296  and  _298
REMARK  104  A    between atoms: _298  and  _299
REMARK  105  A    between atoms: _298  and  _301
REMARK  106  A    between atoms: _301  and  _302
REMARK  107  A    between atoms: _307  and  _309
REMARK  108  A    between atoms: _309  and  _310
REMARK  109  A    between atoms: _309  and  _312
REMARK  110  A    between atoms: _312  and  _313
REMARK  111  A    between atoms: _319  and  _321
REMARK  112  A    between atoms: _321  and  _322
REMARK  113  A    between atoms: _321  and  _324
REMARK  114  A    between atoms: _324  and  _325
REMARK  115  A    between atoms: _328  and  _330
REMARK  116  A    between atoms: _330  and  _331
REMARK                            x       y       z     vdW  Elec       q    Type
REMARK                         _______ _______ _______ _____ _____    ______ ____
ROOT
ATOM      1  O   HOH     1      36.312   7.635  18.286  0.00  0.00    +0.000 OA
ENDROOT
TORSDOF 0
REMARK  Name = ../refined-set-2016/1z6s/1z6s_pocket.pdb
REMARK  116 active torsions:
REMARK  status: ('A' for Active; 'I' for Inactive)
REMARK    1  A    between atoms: _1  and  _3
REMARK    2  A    between atoms: _3  and  _4
REMARK    3  A    between atoms: _7  and  _9
REMARK    4  A    between atoms: _9  and  _10
REMARK    5  A    between atoms: _9  and  _12
REMARK    6  A    between atoms: _12  and  _13
REMARK    7  A    between atoms: _13  and  _14
REMARK    8  A    between atoms: _14  and  _15
REMARK    9  A    between atoms: _15  and  _16
REMARK   10  A    between atoms: _20  and  _22
REMARK   11  A    between atoms: _22  and  _23
REMARK   12  A    between atoms: _22  and  _25
REMARK   13  A    between atoms: _25  and  _26
REMARK   14  A    between atoms: _32  and  _34
REMARK   15  A    between atoms: _34  and  _35
REMARK   16  A    between atoms: _34  and  _37
REMARK   17  A    between atoms: _37  and  _38
REMARK   18  A    between atoms: _38  and  _39
REMARK   19  A    between atoms: _39  and  _40
REMARK   20  A    between atoms: _49  and  _51
REMARK   21  A    between atoms: _51  and  _52
REMARK   22  A    between atoms: _51  and  _54
REMARK   23  A    between atoms: _54  and  _55
REMARK   24  A    between atoms: _55  and  _56
REMARK   25  A    between atoms: _61  and  _63
REMARK   26  A    between atoms: _63  and  _64
REMARK   27  A    between atoms: _63  and  _66
REMARK   28  A    between atoms: _66  and  _67
REMARK   29  A    between atoms: _72  and  _74
REMARK   30  A    between atoms: _74  and  _75
REMARK   31  A    between atoms: _74  and  _77
REMARK   32  A    between atoms: _77  and  _78
REMARK   33  A    between atoms: _81  and  _83
REMARK   34  A    between atoms: _83  and  _84
REMARK   35  A    between atoms: _83  and  _86
REMARK   36  A    between atoms: _86  and  _87
REMARK   37  A    between atoms: _87  and  _88
REMARK   38  A    between atoms: _88  and  _89
REMARK   39  A    between atoms: _98  and  _100
REMARK   40  A    between atoms: _100  and  _101
REMARK   41  A    between atoms: _100  and  _103
REMARK   42  A    between atoms: _103  and  _104
REMARK   43  A    between atoms: _104  and  _105
REMARK   44  A    between atoms: _105  and  _106
REMARK   45  A    between atoms: _106  and  _107
REMARK   46  A    between atoms: _111  and  _113
REMARK   47  A    between atoms: _113  and  _114
REMARK   48  A    between atoms: _113  and  _116
REMARK   49  A    between atoms: _119  and  _121
REMARK   50  A    between atoms: _121  and  _122
REMARK   51  A    between atoms: _121  and  _124
REMARK   52  A    between atoms: _124  and  _125
REMARK   53  A    between atoms: _130  and  _132
REMARK   54  A    between atoms: _132  and  _133
REMARK   55  A    between atoms: _132  and  _135
REMARK   56  A    between atoms: _135  and  _136
REMARK   57  A    between atoms: _139  and  _141
REMARK   58  A    between atoms: _141  and  _142
REMARK   59  A    between atoms: _141  and  _144
REMARK   60  A    between atoms: _147  and  _149
REMARK   61  A    between atoms: _149  and  _150
REMARK   62  A    between atoms: _153  and  _155
REMARK   63  A    between atoms: _162  and  _165
REMARK   64  A    between atoms: _165  and  _166
REMARK   65  A    between atoms: _166  and  _167
REMARK   66  A    between atoms: _167  and  _168
REMARK   67  A    between atoms: _168  and  _169
REMARK   68  A    between atoms: _175  and  _178
REMARK   69  A    between atoms: _178  and  _179
REMARK   70  A    between atoms: _191  and  _194
REMARK   71  A    between atoms: _194  and  _195
REMARK   72  A    between atoms: _195  and  _196
REMARK   73  A    between atoms: _203  and  _206
REMARK   74  A    between atoms: _206  and  _207
REMARK   75  A    between atoms: _212  and  _215
REMARK   76  A    between atoms: _215  and  _216
REMARK   77  A    between atoms: _223  and  _224
REMARK   78  A    between atoms: _228  and  _230
REMARK   79  A    between atoms: _230  and  _231
REMARK   80  A    between atoms: _230  and  _233
REMARK   81  A    between atoms: _233  and  _234
REMARK   82  A    between atoms: _239  and  _240
REMARK   83  A    between atoms: _242  and  _244
REMARK   84  A    between atoms: _244  and  _245
REMARK   85  A    between atoms: _244  and  _247
REMARK   86  A    between atoms: _250  and  _252
REMARK   87  A    between atoms: _252  and  _253
REMARK   88  A    between atoms: _256  and  _258
REMARK   89  A    between atoms: _258  and  _259
REMARK   90  A    between atoms: _258  and  _261
REMARK   91  A    between atoms: _263  and  _265
REMARK   92  A    between atoms: _265  and  _266
REMARK   93  A    between atoms: _265  and  _268
REMARK   94  A    between atoms: _268  and  _269
REMARK   95  A    between atoms: _269  and  _270
REMARK   96  A    between atoms: _273  and  _275
REMARK   97  A    between atoms: _275  and  _276
REMARK   98  A    between atoms: _275  and  _278
REMARK   99  A    between atoms: _282  and  _283
REMARK  100  A    between atoms: _288  and  _290
REMARK  101  A    between atoms: _290  and  _291
REMARK  102  A    between atoms: _290  and  _293
REMARK  103  A    between atoms: _296  and  _298
REMARK  104  A    between atoms: _298  and  _299
REMARK  105  A    between atoms: _298  and  _301
REMARK  106  A    between atoms: _301  and  _302
REMARK  107  A    between atoms: _307  and  _309
REMARK  108  A    between atoms: _309  and  _310
REMARK  109  A    between atoms: _309  and  _312
REMARK  110  A    between atoms: _312  and  _313
REMARK  111  A    between atoms: _319  and  _321
REMARK  112  A    between atoms: _321  and  _322
REMARK  113  A    between atoms: _321  and  _324
REMARK  114  A    between atoms: _324  and  _325
REMARK  115  A    between atoms: _328  and  _330
REMARK  116  A    between atoms: _330  and  _331
REMARK                            x       y       z     vdW  Elec       q    Type
REMARK                         _______ _______ _______ _____ _____    ______ ____
ROOT
ATOM      1  O   HOH     1      46.839   2.897  11.907  0.00  0.00    +0.000 OA
ENDROOT
TORSDOF 0
REMARK  Name = ../refined-set-2016/1z6s/1z6s_pocket.pdb
REMARK  116 active torsions:
REMARK  status: ('A' for Active; 'I' for Inactive)
REMARK    1  A    between atoms: _1  and  _3
REMARK    2  A    between atoms: _3  and  _4
REMARK    3  A    between atoms: _7  and  _9
REMARK    4  A    between atoms: _9  and  _10
REMARK    5  A    between atoms: _9  and  _12
REMARK    6  A    between atoms: _12  and  _13
REMARK    7  A    between atoms: _13  and  _14
REMARK    8  A    between atoms: _14  and  _15
REMARK    9  A    between atoms: _15  and  _16
REMARK   10  A    between atoms: _20  and  _22
REMARK   11  A    between atoms: _22  and  _23
REMARK   12  A    between atoms: _22  and  _25
REMARK   13  A    between atoms: _25  and  _26
REMARK   14  A    between atoms: _32  and  _34
REMARK   15  A    between atoms: _34  and  _35
REMARK   16  A    between atoms: _34  and  _37
REMARK   17  A    between atoms: _37  and  _38
REMARK   18  A    between atoms: _38  and  _39
REMARK   19  A    between atoms: _39  and  _40
REMARK   20  A    between atoms: _49  and  _51
REMARK   21  A    between atoms: _51  and  _52
REMARK   22  A    between atoms: _51  and  _54
REMARK   23  A    between atoms: _54  and  _55
REMARK   24  A    between atoms: _55  and  _56
REMARK   25  A    between atoms: _61  and  _63
REMARK   26  A    between atoms: _63  and  _64
REMARK   27  A    between atoms: _63  and  _66
REMARK   28  A    between atoms: _66  and  _67
REMARK   29  A    between atoms: _72  and  _74
REMARK   30  A    between atoms: _74  and  _75
REMARK   31  A    between atoms: _74  and  _77
REMARK   32  A    between atoms: _77  and  _78
REMARK   33  A    between atoms: _81  and  _83
REMARK   34  A    between atoms: _83  and  _84
REMARK   35  A    between atoms: _83  and  _86
REMARK   36  A    between atoms: _86  and  _87
REMARK   37  A    between atoms: _87  and  _88
REMARK   38  A    between atoms: _88  and  _89
REMARK   39  A    between atoms: _98  and  _100
REMARK   40  A    between atoms: _100  and  _101
REMARK   41  A    between atoms: _100  and  _103
REMARK   42  A    between atoms: _103  and  _104
REMARK   43  A    between atoms: _104  and  _105
REMARK   44  A    between atoms: _105  and  _106
REMARK   45  A    between atoms: _106  and  _107
REMARK   46  A    between atoms: _111  and  _113
REMARK   47  A    between atoms: _113  and  _114
REMARK   48  A    between atoms: _113  and  _116
REMARK   49  A    between atoms: _119  and  _121
REMARK   50  A    between atoms: _121  and  _122
REMARK   51  A    between atoms: _121  and  _124
REMARK   52  A    between atoms: _124  and  _125
REMARK   53  A    between atoms: _130  and  _132
REMARK   54  A    between atoms: _132  and  _133
REMARK   55  A    between atoms: _132  and  _135
REMARK   56  A    between atoms: _135  and  _136
REMARK   57  A    between atoms: _139  and  _141
REMARK   58  A    between atoms: _141  and  _142
REMARK   59  A    between atoms: _141  and  _144
REMARK   60  A    between atoms: _147  and  _149
REMARK   61  A    between atoms: _149  and  _150
REMARK   62  A    between atoms: _153  and  _155
REMARK   63  A    between atoms: _162  and  _165
REMARK   64  A    between atoms: _165  and  _166
REMARK   65  A    between atoms: _166  and  _167
REMARK   66  A    between atoms: _167  and  _168
REMARK   67  A    between atoms: _168  and  _169
REMARK   68  A    between atoms: _175  and  _178
REMARK   69  A    between atoms: _178  and  _179
REMARK   70  A    between atoms: _191  and  _194
REMARK   71  A    between atoms: _194  and  _195
REMARK   72  A    between atoms: _195  and  _196
REMARK   73  A    between atoms: _203  and  _206
REMARK   74  A    between atoms: _206  and  _207
REMARK   75  A    between atoms: _212  and  _215
REMARK   76  A    between atoms: _215  and  _216
REMARK   77  A    between atoms: _223  and  _224
REMARK   78  A    between atoms: _228  and  _230
REMARK   79  A    between atoms: _230  and  _231
REMARK   80  A    between atoms: _230  and  _233
REMARK   81  A    between atoms: _233  and  _234
REMARK   82  A    between atoms: _239  and  _240
REMARK   83  A    between atoms: _242  and  _244
REMARK   84  A    between atoms: _244  and  _245
REMARK   85  A    between atoms: _244  and  _247
REMARK   86  A    between atoms: _250  and  _252
REMARK   87  A    between atoms: _252  and  _253
REMARK   88  A    between atoms: _256  and  _258
REMARK   89  A    between atoms: _258  and  _259
REMARK   90  A    between atoms: _258  and  _261
REMARK   91  A    between atoms: _263  and  _265
REMARK   92  A    between atoms: _265  and  _266
REMARK   93  A    between atoms: _265  and  _268
REMARK   94  A    between atoms: _268  and  _269
REMARK   95  A    between atoms: _269  and  _270
REMARK   96  A    between atoms: _273  and  _275
REMARK   97  A    between atoms: _275  and  _276
REMARK   98  A    between atoms: _275  and  _278
REMARK   99  A    between atoms: _282  and  _283
REMARK  100  A    between atoms: _288  and  _290
REMARK  101  A    between atoms: _290  and  _291
REMARK  102  A    between atoms: _290  and  _293
REMARK  103  A    between atoms: _296  and  _298
REMARK  104  A    between atoms: _298  and  _299
REMARK  105  A    between atoms: _298  and  _301
REMARK  106  A    between atoms: _301  and  _302
REMARK  107  A    between atoms: _307  and  _309
REMARK  108  A    between atoms: _309  and  _310
REMARK  109  A    between atoms: _309  and  _312
REMARK  110  A    between atoms: _312  and  _313
REMARK  111  A    between atoms: _319  and  _321
REMARK  112  A    between atoms: _321  and  _322
REMARK  113  A    between atoms: _321  and  _324
REMARK  114  A    between atoms: _324  and  _325
REMARK  115  A    between atoms: _328  and  _330
REMARK  116  A    between atoms: _330  and  _331
REMARK                            x       y       z     vdW  Elec       q    Type
REMARK                         _______ _______ _______ _____ _____    ______ ____
ROOT
ATOM      1  O   HOH     1      41.367   8.247   8.452  0.00  0.00    +0.000 OA
ENDROOT
TORSDOF 0
