REMARK  Name = ../refined-set-2016/3arq/3arq_pocket.pdb
REMARK  155 active torsions:
REMARK  status: ('A' for Active; 'I' for Inactive)
REMARK    1  A    between atoms: _1  and  _3
REMARK    2  A    between atoms: _3  and  _4
REMARK    3  A    between atoms: _3  and  _6
REMARK    4  A    between atoms: _6  and  _7
REMARK    5  A    between atoms: _17  and  _19
REMARK    6  A    between atoms: _19  and  _20
REMARK    7  A    between atoms: _19  and  _22
REMARK    8  A    between atoms: _22  and  _23
REMARK    9  A    between atoms: _29  and  _31
REMARK   10  A    between atoms: _31  and  _32
REMARK   11  A    between atoms: _31  and  _34
REMARK   12  A    between atoms: _34  and  _35
REMARK   13  A    between atoms: _37  and  _39
REMARK   14  A    between atoms: _39  and  _40
REMARK   15  A    between atoms: _39  and  _42
REMARK   16  A    between atoms: _45  and  _47
REMARK   17  A    between atoms: _47  and  _48
REMARK   18  A    between atoms: _50  and  _52
REMARK   19  A    between atoms: _52  and  _53
REMARK   20  A    between atoms: _52  and  _55
REMARK   21  A    between atoms: _55  and  _56
REMARK   22  A    between atoms: _66  and  _68
REMARK   23  A    between atoms: _68  and  _69
REMARK   24  A    between atoms: _68  and  _71
REMARK   25  A    between atoms: _71  and  _72
REMARK   26  A    between atoms: _75  and  _77
REMARK   27  A    between atoms: _77  and  _78
REMARK   28  A    between atoms: _77  and  _80
REMARK   29  A    between atoms: _80  and  _81
REMARK   30  A    between atoms: _86  and  _87
REMARK   31  A    between atoms: _89  and  _91
REMARK   32  A    between atoms: _91  and  _92
REMARK   33  A    between atoms: _91  and  _94
REMARK   34  A    between atoms: _94  and  _95
REMARK   35  A    between atoms: _95  and  _96
REMARK   36  A    between atoms: _99  and  _101
REMARK   37  A    between atoms: _101  and  _102
REMARK   38  A    between atoms: _101  and  _104
REMARK   39  A    between atoms: _104  and  _105
REMARK   40  A    between atoms: _111  and  _113
REMARK   41  A    between atoms: _113  and  _114
REMARK   42  A    between atoms: _116  and  _118
REMARK   43  A    between atoms: _118  and  _119
REMARK   44  A    between atoms: _121  and  _123
REMARK   45  A    between atoms: _123  and  _124
REMARK   46  A    between atoms: _126  and  _128
REMARK   47  A    between atoms: _128  and  _129
REMARK   48  A    between atoms: _132  and  _134
REMARK   49  A    between atoms: _134  and  _135
REMARK   50  A    between atoms: _138  and  _140
REMARK   51  A    between atoms: _140  and  _141
REMARK   52  A    between atoms: _144  and  _146
REMARK   53  A    between atoms: _146  and  _147
REMARK   54  A    between atoms: _146  and  _149
REMARK   55  A    between atoms: _149  and  _150
REMARK   56  A    between atoms: _153  and  _155
REMARK   57  A    between atoms: _155  and  _156
REMARK   58  A    between atoms: _155  and  _158
REMARK   59  A    between atoms: _158  and  _159
REMARK   60  A    between atoms: _159  and  _160
REMARK   61  A    between atoms: _160  and  _161
REMARK   62  A    between atoms: _161  and  _162
REMARK   63  A    between atoms: _166  and  _168
REMARK   64  A    between atoms: _168  and  _169
REMARK   65  A    between atoms: _171  and  _173
REMARK   66  A    between atoms: _173  and  _174
REMARK   67  A    between atoms: _173  and  _176
REMARK   68  A    between atoms: _179  and  _181
REMARK   69  A    between atoms: _181  and  _182
REMARK   70  A    between atoms: _184  and  _186
REMARK   71  A    between atoms: _186  and  _187
REMARK   72  A    between atoms: _186  and  _189
REMARK   73  A    between atoms: _189  and  _190
REMARK   74  A    between atoms: _193  and  _195
REMARK   75  A    between atoms: _195  and  _196
REMARK   76  A    between atoms: _195  and  _198
REMARK   77  A    between atoms: _198  and  _199
REMARK   78  A    between atoms: _199  and  _200
REMARK   79  A    between atoms: _200  and  _201
REMARK   80  A    between atoms: _201  and  _202
REMARK   81  A    between atoms: _206  and  _208
REMARK   82  A    between atoms: _208  and  _209
REMARK   83  A    between atoms: _208  and  _211
REMARK   84  A    between atoms: _211  and  _212
REMARK   85  A    between atoms: _212  and  _213
REMARK   86  A    between atoms: _215  and  _217
REMARK   87  A    between atoms: _217  and  _218
REMARK   88  A    between atoms: _217  and  _220
REMARK   89  A    between atoms: _220  and  _221
REMARK   90  A    between atoms: _226  and  _227
REMARK   91  A    between atoms: _229  and  _231
REMARK   92  A    between atoms: _231  and  _232
REMARK   93  A    between atoms: _231  and  _234
REMARK   94  A    between atoms: _234  and  _235
REMARK   95  A    between atoms: _238  and  _240
REMARK   96  A    between atoms: _240  and  _241
REMARK   97  A    between atoms: _240  and  _243
REMARK   98  A    between atoms: _243  and  _244
REMARK   99  A    between atoms: _250  and  _252
REMARK  100  A    between atoms: _252  and  _253
REMARK  101  A    between atoms: _252  and  _255
REMARK  102  A    between atoms: _255  and  _256
REMARK  103  A    between atoms: _261  and  _262
REMARK  104  A    between atoms: _264  and  _266
REMARK  105  A    between atoms: _266  and  _267
REMARK  106  A    between atoms: _269  and  _271
REMARK  107  A    between atoms: _271  and  _272
REMARK  108  A    between atoms: _274  and  _276
REMARK  109  A    between atoms: _276  and  _277
REMARK  110  A    between atoms: _276  and  _279
REMARK  111  A    between atoms: _279  and  _280
REMARK  112  A    between atoms: _290  and  _292
REMARK  113  A    between atoms: _292  and  _293
REMARK  114  A    between atoms: _292  and  _295
REMARK  115  A    between atoms: _295  and  _296
REMARK  116  A    between atoms: _301  and  _303
REMARK  117  A    between atoms: _303  and  _304
REMARK  118  A    between atoms: _303  and  _306
REMARK  119  A    between atoms: _306  and  _307
REMARK  120  A    between atoms: _307  and  _308
REMARK  121  A    between atoms: _313  and  _315
REMARK  122  A    between atoms: _315  and  _316
REMARK  123  A    between atoms: _315  and  _318
REMARK  124  A    between atoms: _318  and  _319
REMARK  125  A    between atoms: _324  and  _325
REMARK  126  A    between atoms: _327  and  _329
REMARK  127  A    between atoms: _329  and  _330
REMARK  128  A    between atoms: _329  and  _332
REMARK  129  A    between atoms: _332  and  _333
REMARK  130  A    between atoms: _338  and  _339
REMARK  131  A    between atoms: _341  and  _343
REMARK  132  A    between atoms: _343  and  _344
REMARK  133  A    between atoms: _343  and  _346
REMARK  134  A    between atoms: _346  and  _347
REMARK  135  A    between atoms: _347  and  _348
REMARK  136  A    between atoms: _348  and  _349
REMARK  137  A    between atoms: _358  and  _360
REMARK  138  A    between atoms: _360  and  _361
REMARK  139  A    between atoms: _360  and  _363
REMARK  140  A    between atoms: _363  and  _364
REMARK  141  A    between atoms: _364  and  _365
REMARK  142  A    between atoms: _365  and  _366
REMARK  143  A    between atoms: _366  and  _367
REMARK  144  A    between atoms: _371  and  _373
REMARK  145  A    between atoms: _373  and  _374
REMARK  146  A    between atoms: _373  and  _376
REMARK  147  A    between atoms: _376  and  _377
REMARK  148  A    between atoms: _377  and  _378
REMARK  149  A    between atoms: _381  and  _383
REMARK  150  A    between atoms: _383  and  _384
REMARK  151  A    between atoms: _383  and  _386
REMARK  152  A    between atoms: _389  and  _391
REMARK  153  A    between atoms: _391  and  _392
REMARK  154  A    between atoms: _391  and  _394
REMARK  155  A    between atoms: _394  and  _395
REMARK                            x       y       z     vdW  Elec       q    Type
REMARK                         _______ _______ _______ _____ _____    ______ ____
ROOT
ATOM      1  CG  TRP A   1       5.521  -2.906  30.793  0.00  0.00    -0.002 A 
ATOM      2  CD2 TRP A   1       5.598  -4.220  30.145  0.00  0.00    +0.013 A 
ATOM      3  CE3 TRP A   1       5.087  -5.475  30.443  0.00  0.00    +0.001 A 
ATOM      4  CZ3 TRP A   1       5.330  -6.532  29.541  0.00  0.00    +0.000 A 
ATOM      5  CH2 TRP A   1       6.147  -6.351  28.413  0.00  0.00    +0.001 A 
ATOM      6  CZ2 TRP A   1       6.705  -5.110  28.079  0.00  0.00    +0.017 A 
ATOM      7  CE2 TRP A   1       6.425  -4.050  28.964  0.00  0.00    +0.056 A 
ATOM      8  NE1 TRP A   1       6.760  -2.718  28.863  0.00  0.00    -0.352 N 
ATOM      9  HE1 TRP A   1       7.292  -2.274  28.087  0.00  0.00    +0.166 HD
ATOM     10  CD1 TRP A   1       6.249  -2.066  30.005  0.00  0.00    +0.068 A 
ENDROOT
BRANCH   1  11
ATOM     11  CB  TRP A   1       4.805  -2.546  32.065  0.00  0.00    +0.053 C 
BRANCH  11  12
ATOM     12  CA  TRP A   1       3.317  -2.153  31.860  0.00  0.00    +0.137 C 
BRANCH  12  13
ATOM     13  N   TRP A   1       2.613  -3.264  31.168  0.00  0.00    -0.239 NA
ATOM     14  H   TRP A   1       3.159  -3.912  30.564  0.00  0.00    +0.142 HD
ENDBRANCH  12  13
BRANCH  12  15
ATOM     15  C   TRP A   1       3.207  -0.865  31.077  0.00  0.00    +0.224 C 
ATOM     16  O   TRP A   1       3.809   0.150  31.520  0.00  0.00    -0.287 OA
ENDBRANCH  12  15
ENDBRANCH  11  12
ENDBRANCH   1  11
TORSDOF 4
REMARK  Name = ../refined-set-2016/3arq/3arq_pocket.pdb
REMARK  155 active torsions:
REMARK  status: ('A' for Active; 'I' for Inactive)
REMARK    1  A    between atoms: _1  and  _3
REMARK    2  A    between atoms: _3  and  _4
REMARK    3  A    between atoms: _3  and  _6
REMARK    4  A    between atoms: _6  and  _7
REMARK    5  A    between atoms: _17  and  _19
REMARK    6  A    between atoms: _19  and  _20
REMARK    7  A    between atoms: _19  and  _22
REMARK    8  A    between atoms: _22  and  _23
REMARK    9  A    between atoms: _29  and  _31
REMARK   10  A    between atoms: _31  and  _32
REMARK   11  A    between atoms: _31  and  _34
REMARK   12  A    between atoms: _34  and  _35
REMARK   13  A    between atoms: _37  and  _39
REMARK   14  A    between atoms: _39  and  _40
REMARK   15  A    between atoms: _39  and  _42
REMARK   16  A    between atoms: _45  and  _47
REMARK   17  A    between atoms: _47  and  _48
REMARK   18  A    between atoms: _50  and  _52
REMARK   19  A    between atoms: _52  and  _53
REMARK   20  A    between atoms: _52  and  _55
REMARK   21  A    between atoms: _55  and  _56
REMARK   22  A    between atoms: _66  and  _68
REMARK   23  A    between atoms: _68  and  _69
REMARK   24  A    between atoms: _68  and  _71
REMARK   25  A    between atoms: _71  and  _72
REMARK   26  A    between atoms: _75  and  _77
REMARK   27  A    between atoms: _77  and  _78
REMARK   28  A    between atoms: _77  and  _80
REMARK   29  A    between atoms: _80  and  _81
REMARK   30  A    between atoms: _86  and  _87
REMARK   31  A    between atoms: _89  and  _91
REMARK   32  A    between atoms: _91  and  _92
REMARK   33  A    between atoms: _91  and  _94
REMARK   34  A    between atoms: _94  and  _95
REMARK   35  A    between atoms: _95  and  _96
REMARK   36  A    between atoms: _99  and  _101
REMARK   37  A    between atoms: _101  and  _102
REMARK   38  A    between atoms: _101  and  _104
REMARK   39  A    between atoms: _104  and  _105
REMARK   40  A    between atoms: _111  and  _113
REMARK   41  A    between atoms: _113  and  _114
REMARK   42  A    between atoms: _116  and  _118
REMARK   43  A    between atoms: _118  and  _119
REMARK   44  A    between atoms: _121  and  _123
REMARK   45  A    between atoms: _123  and  _124
REMARK   46  A    between atoms: _126  and  _128
REMARK   47  A    between atoms: _128  and  _129
REMARK   48  A    between atoms: _132  and  _134
REMARK   49  A    between atoms: _134  and  _135
REMARK   50  A    between atoms: _138  and  _140
REMARK   51  A    between atoms: _140  and  _141
REMARK   52  A    between atoms: _144  and  _146
REMARK   53  A    between atoms: _146  and  _147
REMARK   54  A    between atoms: _146  and  _149
REMARK   55  A    between atoms: _149  and  _150
REMARK   56  A    between atoms: _153  and  _155
REMARK   57  A    between atoms: _155  and  _156
REMARK   58  A    between atoms: _155  and  _158
REMARK   59  A    between atoms: _158  and  _159
REMARK   60  A    between atoms: _159  and  _160
REMARK   61  A    between atoms: _160  and  _161
REMARK   62  A    between atoms: _161  and  _162
REMARK   63  A    between atoms: _166  and  _168
REMARK   64  A    between atoms: _168  and  _169
REMARK   65  A    between atoms: _171  and  _173
REMARK   66  A    between atoms: _173  and  _174
REMARK   67  A    between atoms: _173  and  _176
REMARK   68  A    between atoms: _179  and  _181
REMARK   69  A    between atoms: _181  and  _182
REMARK   70  A    between atoms: _184  and  _186
REMARK   71  A    between atoms: _186  and  _187
REMARK   72  A    between atoms: _186  and  _189
REMARK   73  A    between atoms: _189  and  _190
REMARK   74  A    between atoms: _193  and  _195
REMARK   75  A    between atoms: _195  and  _196
REMARK   76  A    between atoms: _195  and  _198
REMARK   77  A    between atoms: _198  and  _199
REMARK   78  A    between atoms: _199  and  _200
REMARK   79  A    between atoms: _200  and  _201
REMARK   80  A    between atoms: _201  and  _202
REMARK   81  A    between atoms: _206  and  _208
REMARK   82  A    between atoms: _208  and  _209
REMARK   83  A    between atoms: _208  and  _211
REMARK   84  A    between atoms: _211  and  _212
REMARK   85  A    between atoms: _212  and  _213
REMARK   86  A    between atoms: _215  and  _217
REMARK   87  A    between atoms: _217  and  _218
REMARK   88  A    between atoms: _217  and  _220
REMARK   89  A    between atoms: _220  and  _221
REMARK   90  A    between atoms: _226  and  _227
REMARK   91  A    between atoms: _229  and  _231
REMARK   92  A    between atoms: _231  and  _232
REMARK   93  A    between atoms: _231  and  _234
REMARK   94  A    between atoms: _234  and  _235
REMARK   95  A    between atoms: _238  and  _240
REMARK   96  A    between atoms: _240  and  _241
REMARK   97  A    between atoms: _240  and  _243
REMARK   98  A    between atoms: _243  and  _244
REMARK   99  A    between atoms: _250  and  _252
REMARK  100  A    between atoms: _252  and  _253
REMARK  101  A    between atoms: _252  and  _255
REMARK  102  A    between atoms: _255  and  _256
REMARK  103  A    between atoms: _261  and  _262
REMARK  104  A    between atoms: _264  and  _266
REMARK  105  A    between atoms: _266  and  _267
REMARK  106  A    between atoms: _269  and  _271
REMARK  107  A    between atoms: _271  and  _272
REMARK  108  A    between atoms: _274  and  _276
REMARK  109  A    between atoms: _276  and  _277
REMARK  110  A    between atoms: _276  and  _279
REMARK  111  A    between atoms: _279  and  _280
REMARK  112  A    between atoms: _290  and  _292
REMARK  113  A    between atoms: _292  and  _293
REMARK  114  A    between atoms: _292  and  _295
REMARK  115  A    between atoms: _295  and  _296
REMARK  116  A    between atoms: _301  and  _303
REMARK  117  A    between atoms: _303  and  _304
REMARK  118  A    between atoms: _303  and  _306
REMARK  119  A    between atoms: _306  and  _307
REMARK  120  A    between atoms: _307  and  _308
REMARK  121  A    between atoms: _313  and  _315
REMARK  122  A    between atoms: _315  and  _316
REMARK  123  A    between atoms: _315  and  _318
REMARK  124  A    between atoms: _318  and  _319
REMARK  125  A    between atoms: _324  and  _325
REMARK  126  A    between atoms: _327  and  _329
REMARK  127  A    between atoms: _329  and  _330
REMARK  128  A    between atoms: _329  and  _332
REMARK  129  A    between atoms: _332  and  _333
REMARK  130  A    between atoms: _338  and  _339
REMARK  131  A    between atoms: _341  and  _343
REMARK  132  A    between atoms: _343  and  _344
REMARK  133  A    between atoms: _343  and  _346
REMARK  134  A    between atoms: _346  and  _347
REMARK  135  A    between atoms: _347  and  _348
REMARK  136  A    between atoms: _348  and  _349
REMARK  137  A    between atoms: _358  and  _360
REMARK  138  A    between atoms: _360  and  _361
REMARK  139  A    between atoms: _360  and  _363
REMARK  140  A    between atoms: _363  and  _364
REMARK  141  A    between atoms: _364  and  _365
REMARK  142  A    between atoms: _365  and  _366
REMARK  143  A    between atoms: _366  and  _367
REMARK  144  A    between atoms: _371  and  _373
REMARK  145  A    between atoms: _373  and  _374
REMARK  146  A    between atoms: _373  and  _376
REMARK  147  A    between atoms: _376  and  _377
REMARK  148  A    between atoms: _377  and  _378
REMARK  149  A    between atoms: _381  and  _383
REMARK  150  A    between atoms: _383  and  _384
REMARK  151  A    between atoms: _383  and  _386
REMARK  152  A    between atoms: _389  and  _391
REMARK  153  A    between atoms: _391  and  _392
REMARK  154  A    between atoms: _391  and  _394
REMARK  155  A    between atoms: _394  and  _395
REMARK                            x       y       z     vdW  Elec       q    Type
REMARK                         _______ _______ _______ _____ _____    ______ ____
ROOT
ATOM      1  CB  PHE A   1       4.328 -11.395  28.638  0.00  0.00    +0.051 C 
ENDROOT
BRANCH   1   2
ATOM      2  CG  PHE A   1       4.789 -10.900  27.301  0.00  0.00    -0.020 A 
ATOM      3  CD2 PHE A   1       5.312  -9.616  27.161  0.00  0.00    -0.004 A 
ATOM      4  CE2 PHE A   1       5.659  -9.141  25.896  0.00  0.00    -0.000 A 
ATOM      5  CZ  PHE A   1       5.519  -9.971  24.747  0.00  0.00    -0.000 A 
ATOM      6  CE1 PHE A   1       5.029 -11.264  24.905  0.00  0.00    -0.000 A 
ATOM      7  CD1 PHE A   1       4.632 -11.698  26.176  0.00  0.00    -0.004 A 
ENDBRANCH   1   2
BRANCH   1   8
ATOM      8  CA  PHE A   1       2.877 -11.065  28.914  0.00  0.00    +0.137 C 
BRANCH   8   9
ATOM      9  N   PHE A   1       2.698  -9.610  29.098  0.00  0.00    -0.239 NA
ATOM     10  H   PHE A   1       2.937  -9.225  30.034  0.00  0.00    +0.142 HD
ENDBRANCH   8   9
BRANCH   8  11
ATOM     11  C   PHE A   1       2.526 -11.712  30.207  0.00  0.00    +0.224 C 
ATOM     12  O   PHE A   1       2.743 -11.147  31.287  0.00  0.00    -0.287 OA
ENDBRANCH   8  11
ENDBRANCH   1   8
TORSDOF 4
REMARK  Name = ../refined-set-2016/3arq/3arq_pocket.pdb
REMARK  155 active torsions:
REMARK  status: ('A' for Active; 'I' for Inactive)
REMARK    1  A    between atoms: _1  and  _3
REMARK    2  A    between atoms: _3  and  _4
REMARK    3  A    between atoms: _3  and  _6
REMARK    4  A    between atoms: _6  and  _7
REMARK    5  A    between atoms: _17  and  _19
REMARK    6  A    between atoms: _19  and  _20
REMARK    7  A    between atoms: _19  and  _22
REMARK    8  A    between atoms: _22  and  _23
REMARK    9  A    between atoms: _29  and  _31
REMARK   10  A    between atoms: _31  and  _32
REMARK   11  A    between atoms: _31  and  _34
REMARK   12  A    between atoms: _34  and  _35
REMARK   13  A    between atoms: _37  and  _39
REMARK   14  A    between atoms: _39  and  _40
REMARK   15  A    between atoms: _39  and  _42
REMARK   16  A    between atoms: _45  and  _47
REMARK   17  A    between atoms: _47  and  _48
REMARK   18  A    between atoms: _50  and  _52
REMARK   19  A    between atoms: _52  and  _53
REMARK   20  A    between atoms: _52  and  _55
REMARK   21  A    between atoms: _55  and  _56
REMARK   22  A    between atoms: _66  and  _68
REMARK   23  A    between atoms: _68  and  _69
REMARK   24  A    between atoms: _68  and  _71
REMARK   25  A    between atoms: _71  and  _72
REMARK   26  A    between atoms: _75  and  _77
REMARK   27  A    between atoms: _77  and  _78
REMARK   28  A    between atoms: _77  and  _80
REMARK   29  A    between atoms: _80  and  _81
REMARK   30  A    between atoms: _86  and  _87
REMARK   31  A    between atoms: _89  and  _91
REMARK   32  A    between atoms: _91  and  _92
REMARK   33  A    between atoms: _91  and  _94
REMARK   34  A    between atoms: _94  and  _95
REMARK   35  A    between atoms: _95  and  _96
REMARK   36  A    between atoms: _99  and  _101
REMARK   37  A    between atoms: _101  and  _102
REMARK   38  A    between atoms: _101  and  _104
REMARK   39  A    between atoms: _104  and  _105
REMARK   40  A    between atoms: _111  and  _113
REMARK   41  A    between atoms: _113  and  _114
REMARK   42  A    between atoms: _116  and  _118
REMARK   43  A    between atoms: _118  and  _119
REMARK   44  A    between atoms: _121  and  _123
REMARK   45  A    between atoms: _123  and  _124
REMARK   46  A    between atoms: _126  and  _128
REMARK   47  A    between atoms: _128  and  _129
REMARK   48  A    between atoms: _132  and  _134
REMARK   49  A    between atoms: _134  and  _135
REMARK   50  A    between atoms: _138  and  _140
REMARK   51  A    between atoms: _140  and  _141
REMARK   52  A    between atoms: _144  and  _146
REMARK   53  A    between atoms: _146  and  _147
REMARK   54  A    between atoms: _146  and  _149
REMARK   55  A    between atoms: _149  and  _150
REMARK   56  A    between atoms: _153  and  _155
REMARK   57  A    between atoms: _155  and  _156
REMARK   58  A    between atoms: _155  and  _158
REMARK   59  A    between atoms: _158  and  _159
REMARK   60  A    between atoms: _159  and  _160
REMARK   61  A    between atoms: _160  and  _161
REMARK   62  A    between atoms: _161  and  _162
REMARK   63  A    between atoms: _166  and  _168
REMARK   64  A    between atoms: _168  and  _169
REMARK   65  A    between atoms: _171  and  _173
REMARK   66  A    between atoms: _173  and  _174
REMARK   67  A    between atoms: _173  and  _176
REMARK   68  A    between atoms: _179  and  _181
REMARK   69  A    between atoms: _181  and  _182
REMARK   70  A    between atoms: _184  and  _186
REMARK   71  A    between atoms: _186  and  _187
REMARK   72  A    between atoms: _186  and  _189
REMARK   73  A    between atoms: _189  and  _190
REMARK   74  A    between atoms: _193  and  _195
REMARK   75  A    between atoms: _195  and  _196
REMARK   76  A    between atoms: _195  and  _198
REMARK   77  A    between atoms: _198  and  _199
REMARK   78  A    between atoms: _199  and  _200
REMARK   79  A    between atoms: _200  and  _201
REMARK   80  A    between atoms: _201  and  _202
REMARK   81  A    between atoms: _206  and  _208
REMARK   82  A    between atoms: _208  and  _209
REMARK   83  A    between atoms: _208  and  _211
REMARK   84  A    between atoms: _211  and  _212
REMARK   85  A    between atoms: _212  and  _213
REMARK   86  A    between atoms: _215  and  _217
REMARK   87  A    between atoms: _217  and  _218
REMARK   88  A    between atoms: _217  and  _220
REMARK   89  A    between atoms: _220  and  _221
REMARK   90  A    between atoms: _226  and  _227
REMARK   91  A    between atoms: _229  and  _231
REMARK   92  A    between atoms: _231  and  _232
REMARK   93  A    between atoms: _231  and  _234
REMARK   94  A    between atoms: _234  and  _235
REMARK   95  A    between atoms: _238  and  _240
REMARK   96  A    between atoms: _240  and  _241
REMARK   97  A    between atoms: _240  and  _243
REMARK   98  A    between atoms: _243  and  _244
REMARK   99  A    between atoms: _250  and  _252
REMARK  100  A    between atoms: _252  and  _253
REMARK  101  A    between atoms: _252  and  _255
REMARK  102  A    between atoms: _255  and  _256
REMARK  103  A    between atoms: _261  and  _262
REMARK  104  A    between atoms: _264  and  _266
REMARK  105  A    between atoms: _266  and  _267
REMARK  106  A    between atoms: _269  and  _271
REMARK  107  A    between atoms: _271  and  _272
REMARK  108  A    between atoms: _274  and  _276
REMARK  109  A    between atoms: _276  and  _277
REMARK  110  A    between atoms: _276  and  _279
REMARK  111  A    between atoms: _279  and  _280
REMARK  112  A    between atoms: _290  and  _292
REMARK  113  A    between atoms: _292  and  _293
REMARK  114  A    between atoms: _292  and  _295
REMARK  115  A    between atoms: _295  and  _296
REMARK  116  A    between atoms: _301  and  _303
REMARK  117  A    between atoms: _303  and  _304
REMARK  118  A    between atoms: _303  and  _306
REMARK  119  A    between atoms: _306  and  _307
REMARK  120  A    between atoms: _307  and  _308
REMARK  121  A    between atoms: _313  and  _315
REMARK  122  A    between atoms: _315  and  _316
REMARK  123  A    between atoms: _315  and  _318
REMARK  124  A    between atoms: _318  and  _319
REMARK  125  A    between atoms: _324  and  _325
REMARK  126  A    between atoms: _327  and  _329
REMARK  127  A    between atoms: _329  and  _330
REMARK  128  A    between atoms: _329  and  _332
REMARK  129  A    between atoms: _332  and  _333
REMARK  130  A    between atoms: _338  and  _339
REMARK  131  A    between atoms: _341  and  _343
REMARK  132  A    between atoms: _343  and  _344
REMARK  133  A    between atoms: _343  and  _346
REMARK  134  A    between atoms: _346  and  _347
REMARK  135  A    between atoms: _347  and  _348
REMARK  136  A    between atoms: _348  and  _349
REMARK  137  A    between atoms: _358  and  _360
REMARK  138  A    between atoms: _360  and  _361
REMARK  139  A    between atoms: _360  and  _363
REMARK  140  A    between atoms: _363  and  _364
REMARK  141  A    between atoms: _364  and  _365
REMARK  142  A    between atoms: _365  and  _366
REMARK  143  A    between atoms: _366  and  _367
REMARK  144  A    between atoms: _371  and  _373
REMARK  145  A    between atoms: _373  and  _374
REMARK  146  A    between atoms: _373  and  _376
REMARK  147  A    between atoms: _376  and  _377
REMARK  148  A    between atoms: _377  and  _378
REMARK  149  A    between atoms: _381  and  _383
REMARK  150  A    between atoms: _383  and  _384
REMARK  151  A    between atoms: _383  and  _386
REMARK  152  A    between atoms: _389  and  _391
REMARK  153  A    between atoms: _391  and  _392
REMARK  154  A    between atoms: _391  and  _394
REMARK  155  A    between atoms: _394  and  _395
REMARK                            x       y       z     vdW  Elec       q    Type
REMARK                         _______ _______ _______ _____ _____    ______ ____
ROOT
ATOM      1  C   SER A   1      16.947  -7.298  33.170  0.00  0.00    +0.241 C 
ATOM      2  N   VAL A   2      15.654  -7.160  33.539  0.00  0.00    -0.298 N 
ATOM      3  H   VAL A   2      15.149  -7.956  33.977  0.00  0.00    +0.150 HD
ATOM      4  O   SER A   1      17.603  -6.340  32.685  0.00  0.00    -0.274 OA
ENDROOT
BRANCH   1   5
ATOM      5  CA  SER A   1      17.684  -8.629  33.381  0.00  0.00    +0.174 C 
BRANCH   5   6
ATOM      6  N   SER A   1      17.060  -9.511  34.372  0.00  0.00    -0.236 NA
ATOM      7  H   SER A   1      16.705 -10.444  34.080  0.00  0.00    +0.142 HD
ENDBRANCH   5   6
BRANCH   5   8
ATOM      8  CB  SER A   1      17.877  -9.365  32.064  0.00  0.00    +0.163 C 
BRANCH   8   9
ATOM      9  OG  SER A   1      16.604  -9.494  31.384  0.00  0.00    -0.380 OA
ATOM     10  H   SER A   1      15.976 -10.003  31.956  0.00  0.00    +0.211 HD
ENDBRANCH   8   9
ENDBRANCH   5   8
ENDBRANCH   1   5
BRANCH   2  11
ATOM     11  CA  VAL A   2      14.955  -5.863  33.316  0.00  0.00    +0.137 C 
BRANCH  11  12
ATOM     12  CB  VAL A   2      13.466  -6.038  32.942  0.00  0.00    +0.026 C 
ATOM     13  CG2 VAL A   2      12.751  -6.688  34.006  0.00  0.00    +0.002 C 
ATOM     14  CG1 VAL A   2      12.777  -4.715  32.643  0.00  0.00    +0.002 C 
ENDBRANCH  11  12
BRANCH  11  15
ATOM     15  C   VAL A   2      15.116  -5.028  34.604  0.00  0.00    +0.227 C 
ATOM     16  O   VAL A   2      14.707  -3.876  34.617  0.00  0.00    -0.286 OA
ENDBRANCH  11  15
ENDBRANCH   2  11
TORSDOF 7
REMARK  Name = ../refined-set-2016/3arq/3arq_pocket.pdb
REMARK  155 active torsions:
REMARK  status: ('A' for Active; 'I' for Inactive)
REMARK    1  A    between atoms: _1  and  _3
REMARK    2  A    between atoms: _3  and  _4
REMARK    3  A    between atoms: _3  and  _6
REMARK    4  A    between atoms: _6  and  _7
REMARK    5  A    between atoms: _17  and  _19
REMARK    6  A    between atoms: _19  and  _20
REMARK    7  A    between atoms: _19  and  _22
REMARK    8  A    between atoms: _22  and  _23
REMARK    9  A    between atoms: _29  and  _31
REMARK   10  A    between atoms: _31  and  _32
REMARK   11  A    between atoms: _31  and  _34
REMARK   12  A    between atoms: _34  and  _35
REMARK   13  A    between atoms: _37  and  _39
REMARK   14  A    between atoms: _39  and  _40
REMARK   15  A    between atoms: _39  and  _42
REMARK   16  A    between atoms: _45  and  _47
REMARK   17  A    between atoms: _47  and  _48
REMARK   18  A    between atoms: _50  and  _52
REMARK   19  A    between atoms: _52  and  _53
REMARK   20  A    between atoms: _52  and  _55
REMARK   21  A    between atoms: _55  and  _56
REMARK   22  A    between atoms: _66  and  _68
REMARK   23  A    between atoms: _68  and  _69
REMARK   24  A    between atoms: _68  and  _71
REMARK   25  A    between atoms: _71  and  _72
REMARK   26  A    between atoms: _75  and  _77
REMARK   27  A    between atoms: _77  and  _78
REMARK   28  A    between atoms: _77  and  _80
REMARK   29  A    between atoms: _80  and  _81
REMARK   30  A    between atoms: _86  and  _87
REMARK   31  A    between atoms: _89  and  _91
REMARK   32  A    between atoms: _91  and  _92
REMARK   33  A    between atoms: _91  and  _94
REMARK   34  A    between atoms: _94  and  _95
REMARK   35  A    between atoms: _95  and  _96
REMARK   36  A    between atoms: _99  and  _101
REMARK   37  A    between atoms: _101  and  _102
REMARK   38  A    between atoms: _101  and  _104
REMARK   39  A    between atoms: _104  and  _105
REMARK   40  A    between atoms: _111  and  _113
REMARK   41  A    between atoms: _113  and  _114
REMARK   42  A    between atoms: _116  and  _118
REMARK   43  A    between atoms: _118  and  _119
REMARK   44  A    between atoms: _121  and  _123
REMARK   45  A    between atoms: _123  and  _124
REMARK   46  A    between atoms: _126  and  _128
REMARK   47  A    between atoms: _128  and  _129
REMARK   48  A    between atoms: _132  and  _134
REMARK   49  A    between atoms: _134  and  _135
REMARK   50  A    between atoms: _138  and  _140
REMARK   51  A    between atoms: _140  and  _141
REMARK   52  A    between atoms: _144  and  _146
REMARK   53  A    between atoms: _146  and  _147
REMARK   54  A    between atoms: _146  and  _149
REMARK   55  A    between atoms: _149  and  _150
REMARK   56  A    between atoms: _153  and  _155
REMARK   57  A    between atoms: _155  and  _156
REMARK   58  A    between atoms: _155  and  _158
REMARK   59  A    between atoms: _158  and  _159
REMARK   60  A    between atoms: _159  and  _160
REMARK   61  A    between atoms: _160  and  _161
REMARK   62  A    between atoms: _161  and  _162
REMARK   63  A    between atoms: _166  and  _168
REMARK   64  A    between atoms: _168  and  _169
REMARK   65  A    between atoms: _171  and  _173
REMARK   66  A    between atoms: _173  and  _174
REMARK   67  A    between atoms: _173  and  _176
REMARK   68  A    between atoms: _179  and  _181
REMARK   69  A    between atoms: _181  and  _182
REMARK   70  A    between atoms: _184  and  _186
REMARK   71  A    between atoms: _186  and  _187
REMARK   72  A    between atoms: _186  and  _189
REMARK   73  A    between atoms: _189  and  _190
REMARK   74  A    between atoms: _193  and  _195
REMARK   75  A    between atoms: _195  and  _196
REMARK   76  A    between atoms: _195  and  _198
REMARK   77  A    between atoms: _198  and  _199
REMARK   78  A    between atoms: _199  and  _200
REMARK   79  A    between atoms: _200  and  _201
REMARK   80  A    between atoms: _201  and  _202
REMARK   81  A    between atoms: _206  and  _208
REMARK   82  A    between atoms: _208  and  _209
REMARK   83  A    between atoms: _208  and  _211
REMARK   84  A    between atoms: _211  and  _212
REMARK   85  A    between atoms: _212  and  _213
REMARK   86  A    between atoms: _215  and  _217
REMARK   87  A    between atoms: _217  and  _218
REMARK   88  A    between atoms: _217  and  _220
REMARK   89  A    between atoms: _220  and  _221
REMARK   90  A    between atoms: _226  and  _227
REMARK   91  A    between atoms: _229  and  _231
REMARK   92  A    between atoms: _231  and  _232
REMARK   93  A    between atoms: _231  and  _234
REMARK   94  A    between atoms: _234  and  _235
REMARK   95  A    between atoms: _238  and  _240
REMARK   96  A    between atoms: _240  and  _241
REMARK   97  A    between atoms: _240  and  _243
REMARK   98  A    between atoms: _243  and  _244
REMARK   99  A    between atoms: _250  and  _252
REMARK  100  A    between atoms: _252  and  _253
REMARK  101  A    between atoms: _252  and  _255
REMARK  102  A    between atoms: _255  and  _256
REMARK  103  A    between atoms: _261  and  _262
REMARK  104  A    between atoms: _264  and  _266
REMARK  105  A    between atoms: _266  and  _267
REMARK  106  A    between atoms: _269  and  _271
REMARK  107  A    between atoms: _271  and  _272
REMARK  108  A    between atoms: _274  and  _276
REMARK  109  A    between atoms: _276  and  _277
REMARK  110  A    between atoms: _276  and  _279
REMARK  111  A    between atoms: _279  and  _280
REMARK  112  A    between atoms: _290  and  _292
REMARK  113  A    between atoms: _292  and  _293
REMARK  114  A    between atoms: _292  and  _295
REMARK  115  A    between atoms: _295  and  _296
REMARK  116  A    between atoms: _301  and  _303
REMARK  117  A    between atoms: _303  and  _304
REMARK  118  A    between atoms: _303  and  _306
REMARK  119  A    between atoms: _306  and  _307
REMARK  120  A    between atoms: _307  and  _308
REMARK  121  A    between atoms: _313  and  _315
REMARK  122  A    between atoms: _315  and  _316
REMARK  123  A    between atoms: _315  and  _318
REMARK  124  A    between atoms: _318  and  _319
REMARK  125  A    between atoms: _324  and  _325
REMARK  126  A    between atoms: _327  and  _329
REMARK  127  A    between atoms: _329  and  _330
REMARK  128  A    between atoms: _329  and  _332
REMARK  129  A    between atoms: _332  and  _333
REMARK  130  A    between atoms: _338  and  _339
REMARK  131  A    between atoms: _341  and  _343
REMARK  132  A    between atoms: _343  and  _344
REMARK  133  A    between atoms: _343  and  _346
REMARK  134  A    between atoms: _346  and  _347
REMARK  135  A    between atoms: _347  and  _348
REMARK  136  A    between atoms: _348  and  _349
REMARK  137  A    between atoms: _358  and  _360
REMARK  138  A    between atoms: _360  and  _361
REMARK  139  A    between atoms: _360  and  _363
REMARK  140  A    between atoms: _363  and  _364
REMARK  141  A    between atoms: _364  and  _365
REMARK  142  A    between atoms: _365  and  _366
REMARK  143  A    between atoms: _366  and  _367
REMARK  144  A    between atoms: _371  and  _373
REMARK  145  A    between atoms: _373  and  _374
REMARK  146  A    between atoms: _373  and  _376
REMARK  147  A    between atoms: _376  and  _377
REMARK  148  A    between atoms: _377  and  _378
REMARK  149  A    between atoms: _381  and  _383
REMARK  150  A    between atoms: _383  and  _384
REMARK  151  A    between atoms: _383  and  _386
REMARK  152  A    between atoms: _389  and  _391
REMARK  153  A    between atoms: _391  and  _392
REMARK  154  A    between atoms: _391  and  _394
REMARK  155  A    between atoms: _394  and  _395
REMARK                            x       y       z     vdW  Elec       q    Type
REMARK                         _______ _______ _______ _____ _____    ______ ____
ROOT
ATOM      1  CA  TRP A   2      12.071 -12.718  25.826  0.00  0.00    +0.153 C 
ENDROOT
BRANCH   1   4
ATOM      2  C   GLY A   1       9.829 -13.627  25.916  0.00  0.00    +0.240 C 
ATOM      3  O   GLY A   1      10.286 -14.607  26.564  0.00  0.00    -0.274 OA
ATOM      4  N   TRP A   2      10.605 -12.607  25.616  0.00  0.00    -0.297 N 
ATOM      5  H   TRP A   2      10.195 -11.731  25.235  0.00  0.00    +0.150 HD
BRANCH   2   6
ATOM      6  CA  GLY A   1       8.360 -13.474  25.590  0.00  0.00    +0.169 C 
BRANCH   6   7
ATOM      7  N   GLY A   1       7.583 -14.649  26.099  0.00  0.00    -0.236 NA
ATOM      8  H   GLY A   1       7.559 -15.531  25.549  0.00  0.00    +0.142 HD
ENDBRANCH   6   7
ENDBRANCH   2   6
ENDBRANCH   1   4
BRANCH   1   9
ATOM      9  C   TRP A   2      12.478 -13.017  27.294  0.00  0.00    +0.241 C 
ATOM     10  N   THR A   3      11.912 -12.262  28.230  0.00  0.00    -0.296 N 
ATOM     11  H   THR A   3      11.170 -11.582  27.968  0.00  0.00    +0.150 HD
ATOM     12  O   TRP A   2      13.349 -13.813  27.527  0.00  0.00    -0.273 OA
BRANCH  10  13
ATOM     13  CA  THR A   3      12.326 -12.383  29.620  0.00  0.00    +0.164 C 
BRANCH  13  14
ATOM     14  C   THR A   3      11.622 -13.460  30.437  0.00  0.00    +0.229 C 
ATOM     15  O   THR A   3      12.100 -13.830  31.527  0.00  0.00    -0.286 OA
ENDBRANCH  13  14
BRANCH  13  16
ATOM     16  CB  THR A   3      12.158 -11.047  30.415  0.00  0.00    +0.136 C 
ATOM     17  CG2 THR A   3      12.975  -9.933  29.660  0.00  0.00    +0.034 C 
BRANCH  16  18
ATOM     18  OG1 THR A   3      10.804 -10.699  30.394  0.00  0.00    -0.382 OA
ATOM     19  HG1 THR A   3      10.510 -10.579  29.456  0.00  0.00    +0.210 HD
ENDBRANCH  16  18
ENDBRANCH  13  16
ENDBRANCH  10  13
ENDBRANCH   1   9
BRANCH   1  20
ATOM     20  CB  TRP A   2      12.700 -11.367  25.426  0.00  0.00    +0.057 C 
BRANCH  20  21
ATOM     21  CG  TRP A   2      14.208 -11.327  25.538  0.00  0.00    -0.002 A 
ATOM     22  CD1 TRP A   2      14.923 -10.703  26.522  0.00  0.00    +0.068 A 
ATOM     23  NE1 TRP A   2      16.288 -10.884  26.312  0.00  0.00    -0.352 N 
ATOM     24  HE1 TRP A   2      17.051 -10.539  26.929  0.00  0.00    +0.166 HD
ATOM     25  CE2 TRP A   2      16.452 -11.592  25.156  0.00  0.00    +0.056 A 
ATOM     26  CZ2 TRP A   2      17.644 -11.970  24.485  0.00  0.00    +0.017 A 
ATOM     27  CH2 TRP A   2      17.511 -12.629  23.301  0.00  0.00    +0.001 A 
ATOM     28  CZ3 TRP A   2      16.238 -12.920  22.720  0.00  0.00    +0.000 A 
ATOM     29  CE3 TRP A   2      15.061 -12.570  23.396  0.00  0.00    +0.001 A 
ATOM     30  CD2 TRP A   2      15.160 -11.861  24.621  0.00  0.00    +0.013 A 
ENDBRANCH  20  21
ENDBRANCH   1  20
TORSDOF 10
REMARK  Name = ../refined-set-2016/3arq/3arq_pocket.pdb
REMARK  155 active torsions:
REMARK  status: ('A' for Active; 'I' for Inactive)
REMARK    1  A    between atoms: _1  and  _3
REMARK    2  A    between atoms: _3  and  _4
REMARK    3  A    between atoms: _3  and  _6
REMARK    4  A    between atoms: _6  and  _7
REMARK    5  A    between atoms: _17  and  _19
REMARK    6  A    between atoms: _19  and  _20
REMARK    7  A    between atoms: _19  and  _22
REMARK    8  A    between atoms: _22  and  _23
REMARK    9  A    between atoms: _29  and  _31
REMARK   10  A    between atoms: _31  and  _32
REMARK   11  A    between atoms: _31  and  _34
REMARK   12  A    between atoms: _34  and  _35
REMARK   13  A    between atoms: _37  and  _39
REMARK   14  A    between atoms: _39  and  _40
REMARK   15  A    between atoms: _39  and  _42
REMARK   16  A    between atoms: _45  and  _47
REMARK   17  A    between atoms: _47  and  _48
REMARK   18  A    between atoms: _50  and  _52
REMARK   19  A    between atoms: _52  and  _53
REMARK   20  A    between atoms: _52  and  _55
REMARK   21  A    between atoms: _55  and  _56
REMARK   22  A    between atoms: _66  and  _68
REMARK   23  A    between atoms: _68  and  _69
REMARK   24  A    between atoms: _68  and  _71
REMARK   25  A    between atoms: _71  and  _72
REMARK   26  A    between atoms: _75  and  _77
REMARK   27  A    between atoms: _77  and  _78
REMARK   28  A    between atoms: _77  and  _80
REMARK   29  A    between atoms: _80  and  _81
REMARK   30  A    between atoms: _86  and  _87
REMARK   31  A    between atoms: _89  and  _91
REMARK   32  A    between atoms: _91  and  _92
REMARK   33  A    between atoms: _91  and  _94
REMARK   34  A    between atoms: _94  and  _95
REMARK   35  A    between atoms: _95  and  _96
REMARK   36  A    between atoms: _99  and  _101
REMARK   37  A    between atoms: _101  and  _102
REMARK   38  A    between atoms: _101  and  _104
REMARK   39  A    between atoms: _104  and  _105
REMARK   40  A    between atoms: _111  and  _113
REMARK   41  A    between atoms: _113  and  _114
REMARK   42  A    between atoms: _116  and  _118
REMARK   43  A    between atoms: _118  and  _119
REMARK   44  A    between atoms: _121  and  _123
REMARK   45  A    between atoms: _123  and  _124
REMARK   46  A    between atoms: _126  and  _128
REMARK   47  A    between atoms: _128  and  _129
REMARK   48  A    between atoms: _132  and  _134
REMARK   49  A    between atoms: _134  and  _135
REMARK   50  A    between atoms: _138  and  _140
REMARK   51  A    between atoms: _140  and  _141
REMARK   52  A    between atoms: _144  and  _146
REMARK   53  A    between atoms: _146  and  _147
REMARK   54  A    between atoms: _146  and  _149
REMARK   55  A    between atoms: _149  and  _150
REMARK   56  A    between atoms: _153  and  _155
REMARK   57  A    between atoms: _155  and  _156
REMARK   58  A    between atoms: _155  and  _158
REMARK   59  A    between atoms: _158  and  _159
REMARK   60  A    between atoms: _159  and  _160
REMARK   61  A    between atoms: _160  and  _161
REMARK   62  A    between atoms: _161  and  _162
REMARK   63  A    between atoms: _166  and  _168
REMARK   64  A    between atoms: _168  and  _169
REMARK   65  A    between atoms: _171  and  _173
REMARK   66  A    between atoms: _173  and  _174
REMARK   67  A    between atoms: _173  and  _176
REMARK   68  A    between atoms: _179  and  _181
REMARK   69  A    between atoms: _181  and  _182
REMARK   70  A    between atoms: _184  and  _186
REMARK   71  A    between atoms: _186  and  _187
REMARK   72  A    between atoms: _186  and  _189
REMARK   73  A    between atoms: _189  and  _190
REMARK   74  A    between atoms: _193  and  _195
REMARK   75  A    between atoms: _195  and  _196
REMARK   76  A    between atoms: _195  and  _198
REMARK   77  A    between atoms: _198  and  _199
REMARK   78  A    between atoms: _199  and  _200
REMARK   79  A    between atoms: _200  and  _201
REMARK   80  A    between atoms: _201  and  _202
REMARK   81  A    between atoms: _206  and  _208
REMARK   82  A    between atoms: _208  and  _209
REMARK   83  A    between atoms: _208  and  _211
REMARK   84  A    between atoms: _211  and  _212
REMARK   85  A    between atoms: _212  and  _213
REMARK   86  A    between atoms: _215  and  _217
REMARK   87  A    between atoms: _217  and  _218
REMARK   88  A    between atoms: _217  and  _220
REMARK   89  A    between atoms: _220  and  _221
REMARK   90  A    between atoms: _226  and  _227
REMARK   91  A    between atoms: _229  and  _231
REMARK   92  A    between atoms: _231  and  _232
REMARK   93  A    between atoms: _231  and  _234
REMARK   94  A    between atoms: _234  and  _235
REMARK   95  A    between atoms: _238  and  _240
REMARK   96  A    between atoms: _240  and  _241
REMARK   97  A    between atoms: _240  and  _243
REMARK   98  A    between atoms: _243  and  _244
REMARK   99  A    between atoms: _250  and  _252
REMARK  100  A    between atoms: _252  and  _253
REMARK  101  A    between atoms: _252  and  _255
REMARK  102  A    between atoms: _255  and  _256
REMARK  103  A    between atoms: _261  and  _262
REMARK  104  A    between atoms: _264  and  _266
REMARK  105  A    between atoms: _266  and  _267
REMARK  106  A    between atoms: _269  and  _271
REMARK  107  A    between atoms: _271  and  _272
REMARK  108  A    between atoms: _274  and  _276
REMARK  109  A    between atoms: _276  and  _277
REMARK  110  A    between atoms: _276  and  _279
REMARK  111  A    between atoms: _279  and  _280
REMARK  112  A    between atoms: _290  and  _292
REMARK  113  A    between atoms: _292  and  _293
REMARK  114  A    between atoms: _292  and  _295
REMARK  115  A    between atoms: _295  and  _296
REMARK  116  A    between atoms: _301  and  _303
REMARK  117  A    between atoms: _303  and  _304
REMARK  118  A    between atoms: _303  and  _306
REMARK  119  A    between atoms: _306  and  _307
REMARK  120  A    between atoms: _307  and  _308
REMARK  121  A    between atoms: _313  and  _315
REMARK  122  A    between atoms: _315  and  _316
REMARK  123  A    between atoms: _315  and  _318
REMARK  124  A    between atoms: _318  and  _319
REMARK  125  A    between atoms: _324  and  _325
REMARK  126  A    between atoms: _327  and  _329
REMARK  127  A    between atoms: _329  and  _330
REMARK  128  A    between atoms: _329  and  _332
REMARK  129  A    between atoms: _332  and  _333
REMARK  130  A    between atoms: _338  and  _339
REMARK  131  A    between atoms: _341  and  _343
REMARK  132  A    between atoms: _343  and  _344
REMARK  133  A    between atoms: _343  and  _346
REMARK  134  A    between atoms: _346  and  _347
REMARK  135  A    between atoms: _347  and  _348
REMARK  136  A    between atoms: _348  and  _349
REMARK  137  A    between atoms: _358  and  _360
REMARK  138  A    between atoms: _360  and  _361
REMARK  139  A    between atoms: _360  and  _363
REMARK  140  A    between atoms: _363  and  _364
REMARK  141  A    between atoms: _364  and  _365
REMARK  142  A    between atoms: _365  and  _366
REMARK  143  A    between atoms: _366  and  _367
REMARK  144  A    between atoms: _371  and  _373
REMARK  145  A    between atoms: _373  and  _374
REMARK  146  A    between atoms: _373  and  _376
REMARK  147  A    between atoms: _376  and  _377
REMARK  148  A    between atoms: _377  and  _378
REMARK  149  A    between atoms: _381  and  _383
REMARK  150  A    between atoms: _383  and  _384
REMARK  151  A    between atoms: _383  and  _386
REMARK  152  A    between atoms: _389  and  _391
REMARK  153  A    between atoms: _391  and  _392
REMARK  154  A    between atoms: _391  and  _394
REMARK  155  A    between atoms: _394  and  _395
REMARK                            x       y       z     vdW  Elec       q    Type
REMARK                         _______ _______ _______ _____ _____    ______ ____
ROOT
ATOM      1  CG  TYR A   1      14.460 -23.545  27.967  0.00  0.00    -0.020 A 
ATOM      2  CD2 TYR A   1      14.322 -22.232  28.458  0.00  0.00    -0.001 A 
ATOM      3  CE2 TYR A   1      14.609 -21.161  27.621  0.00  0.00    +0.036 A 
ATOM      4  CZ  TYR A   1      15.013 -21.376  26.352  0.00  0.00    +0.134 A 
ATOM      5  CE1 TYR A   1      15.182 -22.635  25.829  0.00  0.00    +0.036 A 
ATOM      6  CD1 TYR A   1      14.874 -23.731  26.662  0.00  0.00    -0.001 A 
ENDROOT
BRANCH   4   7
ATOM      7  OH  TYR A   1      15.349 -20.261  25.550  0.00  0.00    -0.506 OA
ATOM      8  HH  TYR A   1      16.308 -20.308  25.307  0.00  0.00    +0.292 HD
ENDBRANCH   4   7
BRANCH   1   9
ATOM      9  CB  TYR A   1      14.173 -24.745  28.897  0.00  0.00    +0.051 C 
BRANCH   9  10
ATOM     10  CA  TYR A   1      12.838 -25.344  28.649  0.00  0.00    +0.137 C 
BRANCH  10  11
ATOM     11  N   TYR A   1      11.769 -24.321  28.895  0.00  0.00    -0.239 NA
ATOM     12  H   TYR A   1      12.019 -23.412  29.334  0.00  0.00    +0.142 HD
ENDBRANCH  10  11
BRANCH  10  13
ATOM     13  C   TYR A   1      12.626 -26.626  29.532  0.00  0.00    +0.224 C 
ATOM     14  O   TYR A   1      13.182 -27.676  29.188  0.00  0.00    -0.287 OA
ENDBRANCH  10  13
ENDBRANCH   9  10
ENDBRANCH   1   9
TORSDOF 5
REMARK  Name = ../refined-set-2016/3arq/3arq_pocket.pdb
REMARK  155 active torsions:
REMARK  status: ('A' for Active; 'I' for Inactive)
REMARK    1  A    between atoms: _1  and  _3
REMARK    2  A    between atoms: _3  and  _4
REMARK    3  A    between atoms: _3  and  _6
REMARK    4  A    between atoms: _6  and  _7
REMARK    5  A    between atoms: _17  and  _19
REMARK    6  A    between atoms: _19  and  _20
REMARK    7  A    between atoms: _19  and  _22
REMARK    8  A    between atoms: _22  and  _23
REMARK    9  A    between atoms: _29  and  _31
REMARK   10  A    between atoms: _31  and  _32
REMARK   11  A    between atoms: _31  and  _34
REMARK   12  A    between atoms: _34  and  _35
REMARK   13  A    between atoms: _37  and  _39
REMARK   14  A    between atoms: _39  and  _40
REMARK   15  A    between atoms: _39  and  _42
REMARK   16  A    between atoms: _45  and  _47
REMARK   17  A    between atoms: _47  and  _48
REMARK   18  A    between atoms: _50  and  _52
REMARK   19  A    between atoms: _52  and  _53
REMARK   20  A    between atoms: _52  and  _55
REMARK   21  A    between atoms: _55  and  _56
REMARK   22  A    between atoms: _66  and  _68
REMARK   23  A    between atoms: _68  and  _69
REMARK   24  A    between atoms: _68  and  _71
REMARK   25  A    between atoms: _71  and  _72
REMARK   26  A    between atoms: _75  and  _77
REMARK   27  A    between atoms: _77  and  _78
REMARK   28  A    between atoms: _77  and  _80
REMARK   29  A    between atoms: _80  and  _81
REMARK   30  A    between atoms: _86  and  _87
REMARK   31  A    between atoms: _89  and  _91
REMARK   32  A    between atoms: _91  and  _92
REMARK   33  A    between atoms: _91  and  _94
REMARK   34  A    between atoms: _94  and  _95
REMARK   35  A    between atoms: _95  and  _96
REMARK   36  A    between atoms: _99  and  _101
REMARK   37  A    between atoms: _101  and  _102
REMARK   38  A    between atoms: _101  and  _104
REMARK   39  A    between atoms: _104  and  _105
REMARK   40  A    between atoms: _111  and  _113
REMARK   41  A    between atoms: _113  and  _114
REMARK   42  A    between atoms: _116  and  _118
REMARK   43  A    between atoms: _118  and  _119
REMARK   44  A    between atoms: _121  and  _123
REMARK   45  A    between atoms: _123  and  _124
REMARK   46  A    between atoms: _126  and  _128
REMARK   47  A    between atoms: _128  and  _129
REMARK   48  A    between atoms: _132  and  _134
REMARK   49  A    between atoms: _134  and  _135
REMARK   50  A    between atoms: _138  and  _140
REMARK   51  A    between atoms: _140  and  _141
REMARK   52  A    between atoms: _144  and  _146
REMARK   53  A    between atoms: _146  and  _147
REMARK   54  A    between atoms: _146  and  _149
REMARK   55  A    between atoms: _149  and  _150
REMARK   56  A    between atoms: _153  and  _155
REMARK   57  A    between atoms: _155  and  _156
REMARK   58  A    between atoms: _155  and  _158
REMARK   59  A    between atoms: _158  and  _159
REMARK   60  A    between atoms: _159  and  _160
REMARK   61  A    between atoms: _160  and  _161
REMARK   62  A    between atoms: _161  and  _162
REMARK   63  A    between atoms: _166  and  _168
REMARK   64  A    between atoms: _168  and  _169
REMARK   65  A    between atoms: _171  and  _173
REMARK   66  A    between atoms: _173  and  _174
REMARK   67  A    between atoms: _173  and  _176
REMARK   68  A    between atoms: _179  and  _181
REMARK   69  A    between atoms: _181  and  _182
REMARK   70  A    between atoms: _184  and  _186
REMARK   71  A    between atoms: _186  and  _187
REMARK   72  A    between atoms: _186  and  _189
REMARK   73  A    between atoms: _189  and  _190
REMARK   74  A    between atoms: _193  and  _195
REMARK   75  A    between atoms: _195  and  _196
REMARK   76  A    between atoms: _195  and  _198
REMARK   77  A    between atoms: _198  and  _199
REMARK   78  A    between atoms: _199  and  _200
REMARK   79  A    between atoms: _200  and  _201
REMARK   80  A    between atoms: _201  and  _202
REMARK   81  A    between atoms: _206  and  _208
REMARK   82  A    between atoms: _208  and  _209
REMARK   83  A    between atoms: _208  and  _211
REMARK   84  A    between atoms: _211  and  _212
REMARK   85  A    between atoms: _212  and  _213
REMARK   86  A    between atoms: _215  and  _217
REMARK   87  A    between atoms: _217  and  _218
REMARK   88  A    between atoms: _217  and  _220
REMARK   89  A    between atoms: _220  and  _221
REMARK   90  A    between atoms: _226  and  _227
REMARK   91  A    between atoms: _229  and  _231
REMARK   92  A    between atoms: _231  and  _232
REMARK   93  A    between atoms: _231  and  _234
REMARK   94  A    between atoms: _234  and  _235
REMARK   95  A    between atoms: _238  and  _240
REMARK   96  A    between atoms: _240  and  _241
REMARK   97  A    between atoms: _240  and  _243
REMARK   98  A    between atoms: _243  and  _244
REMARK   99  A    between atoms: _250  and  _252
REMARK  100  A    between atoms: _252  and  _253
REMARK  101  A    between atoms: _252  and  _255
REMARK  102  A    between atoms: _255  and  _256
REMARK  103  A    between atoms: _261  and  _262
REMARK  104  A    between atoms: _264  and  _266
REMARK  105  A    between atoms: _266  and  _267
REMARK  106  A    between atoms: _269  and  _271
REMARK  107  A    between atoms: _271  and  _272
REMARK  108  A    between atoms: _274  and  _276
REMARK  109  A    between atoms: _276  and  _277
REMARK  110  A    between atoms: _276  and  _279
REMARK  111  A    between atoms: _279  and  _280
REMARK  112  A    between atoms: _290  and  _292
REMARK  113  A    between atoms: _292  and  _293
REMARK  114  A    between atoms: _292  and  _295
REMARK  115  A    between atoms: _295  and  _296
REMARK  116  A    between atoms: _301  and  _303
REMARK  117  A    between atoms: _303  and  _304
REMARK  118  A    between atoms: _303  and  _306
REMARK  119  A    between atoms: _306  and  _307
REMARK  120  A    between atoms: _307  and  _308
REMARK  121  A    between atoms: _313  and  _315
REMARK  122  A    between atoms: _315  and  _316
REMARK  123  A    between atoms: _315  and  _318
REMARK  124  A    between atoms: _318  and  _319
REMARK  125  A    between atoms: _324  and  _325
REMARK  126  A    between atoms: _327  and  _329
REMARK  127  A    between atoms: _329  and  _330
REMARK  128  A    between atoms: _329  and  _332
REMARK  129  A    between atoms: _332  and  _333
REMARK  130  A    between atoms: _338  and  _339
REMARK  131  A    between atoms: _341  and  _343
REMARK  132  A    between atoms: _343  and  _344
REMARK  133  A    between atoms: _343  and  _346
REMARK  134  A    between atoms: _346  and  _347
REMARK  135  A    between atoms: _347  and  _348
REMARK  136  A    between atoms: _348  and  _349
REMARK  137  A    between atoms: _358  and  _360
REMARK  138  A    between atoms: _360  and  _361
REMARK  139  A    between atoms: _360  and  _363
REMARK  140  A    between atoms: _363  and  _364
REMARK  141  A    between atoms: _364  and  _365
REMARK  142  A    between atoms: _365  and  _366
REMARK  143  A    between atoms: _366  and  _367
REMARK  144  A    between atoms: _371  and  _373
REMARK  145  A    between atoms: _373  and  _374
REMARK  146  A    between atoms: _373  and  _376
REMARK  147  A    between atoms: _376  and  _377
REMARK  148  A    between atoms: _377  and  _378
REMARK  149  A    between atoms: _381  and  _383
REMARK  150  A    between atoms: _383  and  _384
REMARK  151  A    between atoms: _383  and  _386
REMARK  152  A    between atoms: _389  and  _391
REMARK  153  A    between atoms: _391  and  _392
REMARK  154  A    between atoms: _391  and  _394
REMARK  155  A    between atoms: _394  and  _395
REMARK                            x       y       z     vdW  Elec       q    Type
REMARK                         _______ _______ _______ _____ _____    ______ ____
ROOT
ATOM      1  C   GLU A   1      13.226 -18.213  23.541  0.00  0.00    +0.238 C 
ATOM      2  O   GLU A   1      13.707 -17.718  24.627  0.00  0.00    -0.274 OA
ATOM      3  N   PHE A   2      13.724 -19.381  23.029  0.00  0.00    -0.298 N 
ATOM      4  H   PHE A   2      14.492 -19.835  23.563  0.00  0.00    +0.150 HD
ENDROOT
BRANCH   1   5
ATOM      5  CA  GLU A   1      11.990 -17.575  22.848  0.00  0.00    +0.145 C 
BRANCH   5   6
ATOM      6  N   GLU A   1      10.800 -18.142  23.557  0.00  0.00    -0.238 NA
ATOM      7  H   GLU A   1      10.676 -17.965  24.574  0.00  0.00    +0.142 HD
ENDBRANCH   5   6
BRANCH   5   8
ATOM      8  CB  GLU A   1      11.978 -16.045  23.006  0.00  0.00    +0.038 C 
BRANCH   8   9
ATOM      9  CG  GLU A   1      10.702 -15.470  22.431  0.00  0.00    +0.116 C 
BRANCH   9  10
ATOM     10  CD  GLU A   1      10.707 -13.936  22.351  0.00  0.00    +0.365 C 
ATOM     11  OE2 GLU A   1      11.774 -13.341  22.432  0.00  0.00    -0.246 OA
ATOM     12  OE1 GLU A   1       9.595 -13.405  22.272  0.00  0.00    -0.246 OA
ENDBRANCH   9  10
ENDBRANCH   8   9
ENDBRANCH   5   8
ENDBRANCH   1   5
BRANCH   3  13
ATOM     13  CA  PHE A   2      13.287 -20.054  21.811  0.00  0.00    +0.141 C 
BRANCH  13  14
ATOM     14  C   PHE A   2      13.569 -21.555  22.013  0.00  0.00    +0.227 C 
ATOM     15  O   PHE A   2      14.550 -21.866  22.700  0.00  0.00    -0.286 OA
ENDBRANCH  13  14
BRANCH  13  16
ATOM     16  CB  PHE A   2      14.155 -19.598  20.567  0.00  0.00    +0.054 C 
BRANCH  16  17
ATOM     17  CG  PHE A   2      14.164 -18.091  20.310  0.00  0.00    -0.020 A 
ATOM     18  CD2 PHE A   2      15.140 -17.319  20.864  0.00  0.00    -0.004 A 
ATOM     19  CE2 PHE A   2      15.106 -15.900  20.621  0.00  0.00    -0.000 A 
ATOM     20  CZ  PHE A   2      14.145 -15.369  19.828  0.00  0.00    -0.000 A 
ATOM     21  CE1 PHE A   2      13.132 -16.171  19.279  0.00  0.00    -0.000 A 
ATOM     22  CD1 PHE A   2      13.169 -17.557  19.531  0.00  0.00    -0.004 A 
ENDBRANCH  16  17
ENDBRANCH  13  16
ENDBRANCH   3  13
TORSDOF 9
REMARK  Name = ../refined-set-2016/3arq/3arq_pocket.pdb
REMARK  155 active torsions:
REMARK  status: ('A' for Active; 'I' for Inactive)
REMARK    1  A    between atoms: _1  and  _3
REMARK    2  A    between atoms: _3  and  _4
REMARK    3  A    between atoms: _3  and  _6
REMARK    4  A    between atoms: _6  and  _7
REMARK    5  A    between atoms: _17  and  _19
REMARK    6  A    between atoms: _19  and  _20
REMARK    7  A    between atoms: _19  and  _22
REMARK    8  A    between atoms: _22  and  _23
REMARK    9  A    between atoms: _29  and  _31
REMARK   10  A    between atoms: _31  and  _32
REMARK   11  A    between atoms: _31  and  _34
REMARK   12  A    between atoms: _34  and  _35
REMARK   13  A    between atoms: _37  and  _39
REMARK   14  A    between atoms: _39  and  _40
REMARK   15  A    between atoms: _39  and  _42
REMARK   16  A    between atoms: _45  and  _47
REMARK   17  A    between atoms: _47  and  _48
REMARK   18  A    between atoms: _50  and  _52
REMARK   19  A    between atoms: _52  and  _53
REMARK   20  A    between atoms: _52  and  _55
REMARK   21  A    between atoms: _55  and  _56
REMARK   22  A    between atoms: _66  and  _68
REMARK   23  A    between atoms: _68  and  _69
REMARK   24  A    between atoms: _68  and  _71
REMARK   25  A    between atoms: _71  and  _72
REMARK   26  A    between atoms: _75  and  _77
REMARK   27  A    between atoms: _77  and  _78
REMARK   28  A    between atoms: _77  and  _80
REMARK   29  A    between atoms: _80  and  _81
REMARK   30  A    between atoms: _86  and  _87
REMARK   31  A    between atoms: _89  and  _91
REMARK   32  A    between atoms: _91  and  _92
REMARK   33  A    between atoms: _91  and  _94
REMARK   34  A    between atoms: _94  and  _95
REMARK   35  A    between atoms: _95  and  _96
REMARK   36  A    between atoms: _99  and  _101
REMARK   37  A    between atoms: _101  and  _102
REMARK   38  A    between atoms: _101  and  _104
REMARK   39  A    between atoms: _104  and  _105
REMARK   40  A    between atoms: _111  and  _113
REMARK   41  A    between atoms: _113  and  _114
REMARK   42  A    between atoms: _116  and  _118
REMARK   43  A    between atoms: _118  and  _119
REMARK   44  A    between atoms: _121  and  _123
REMARK   45  A    between atoms: _123  and  _124
REMARK   46  A    between atoms: _126  and  _128
REMARK   47  A    between atoms: _128  and  _129
REMARK   48  A    between atoms: _132  and  _134
REMARK   49  A    between atoms: _134  and  _135
REMARK   50  A    between atoms: _138  and  _140
REMARK   51  A    between atoms: _140  and  _141
REMARK   52  A    between atoms: _144  and  _146
REMARK   53  A    between atoms: _146  and  _147
REMARK   54  A    between atoms: _146  and  _149
REMARK   55  A    between atoms: _149  and  _150
REMARK   56  A    between atoms: _153  and  _155
REMARK   57  A    between atoms: _155  and  _156
REMARK   58  A    between atoms: _155  and  _158
REMARK   59  A    between atoms: _158  and  _159
REMARK   60  A    between atoms: _159  and  _160
REMARK   61  A    between atoms: _160  and  _161
REMARK   62  A    between atoms: _161  and  _162
REMARK   63  A    between atoms: _166  and  _168
REMARK   64  A    between atoms: _168  and  _169
REMARK   65  A    between atoms: _171  and  _173
REMARK   66  A    between atoms: _173  and  _174
REMARK   67  A    between atoms: _173  and  _176
REMARK   68  A    between atoms: _179  and  _181
REMARK   69  A    between atoms: _181  and  _182
REMARK   70  A    between atoms: _184  and  _186
REMARK   71  A    between atoms: _186  and  _187
REMARK   72  A    between atoms: _186  and  _189
REMARK   73  A    between atoms: _189  and  _190
REMARK   74  A    between atoms: _193  and  _195
REMARK   75  A    between atoms: _195  and  _196
REMARK   76  A    between atoms: _195  and  _198
REMARK   77  A    between atoms: _198  and  _199
REMARK   78  A    between atoms: _199  and  _200
REMARK   79  A    between atoms: _200  and  _201
REMARK   80  A    between atoms: _201  and  _202
REMARK   81  A    between atoms: _206  and  _208
REMARK   82  A    between atoms: _208  and  _209
REMARK   83  A    between atoms: _208  and  _211
REMARK   84  A    between atoms: _211  and  _212
REMARK   85  A    between atoms: _212  and  _213
REMARK   86  A    between atoms: _215  and  _217
REMARK   87  A    between atoms: _217  and  _218
REMARK   88  A    between atoms: _217  and  _220
REMARK   89  A    between atoms: _220  and  _221
REMARK   90  A    between atoms: _226  and  _227
REMARK   91  A    between atoms: _229  and  _231
REMARK   92  A    between atoms: _231  and  _232
REMARK   93  A    between atoms: _231  and  _234
REMARK   94  A    between atoms: _234  and  _235
REMARK   95  A    between atoms: _238  and  _240
REMARK   96  A    between atoms: _240  and  _241
REMARK   97  A    between atoms: _240  and  _243
REMARK   98  A    between atoms: _243  and  _244
REMARK   99  A    between atoms: _250  and  _252
REMARK  100  A    between atoms: _252  and  _253
REMARK  101  A    between atoms: _252  and  _255
REMARK  102  A    between atoms: _255  and  _256
REMARK  103  A    between atoms: _261  and  _262
REMARK  104  A    between atoms: _264  and  _266
REMARK  105  A    between atoms: _266  and  _267
REMARK  106  A    between atoms: _269  and  _271
REMARK  107  A    between atoms: _271  and  _272
REMARK  108  A    between atoms: _274  and  _276
REMARK  109  A    between atoms: _276  and  _277
REMARK  110  A    between atoms: _276  and  _279
REMARK  111  A    between atoms: _279  and  _280
REMARK  112  A    between atoms: _290  and  _292
REMARK  113  A    between atoms: _292  and  _293
REMARK  114  A    between atoms: _292  and  _295
REMARK  115  A    between atoms: _295  and  _296
REMARK  116  A    between atoms: _301  and  _303
REMARK  117  A    between atoms: _303  and  _304
REMARK  118  A    between atoms: _303  and  _306
REMARK  119  A    between atoms: _306  and  _307
REMARK  120  A    between atoms: _307  and  _308
REMARK  121  A    between atoms: _313  and  _315
REMARK  122  A    between atoms: _315  and  _316
REMARK  123  A    between atoms: _315  and  _318
REMARK  124  A    between atoms: _318  and  _319
REMARK  125  A    between atoms: _324  and  _325
REMARK  126  A    between atoms: _327  and  _329
REMARK  127  A    between atoms: _329  and  _330
REMARK  128  A    between atoms: _329  and  _332
REMARK  129  A    between atoms: _332  and  _333
REMARK  130  A    between atoms: _338  and  _339
REMARK  131  A    between atoms: _341  and  _343
REMARK  132  A    between atoms: _343  and  _344
REMARK  133  A    between atoms: _343  and  _346
REMARK  134  A    between atoms: _346  and  _347
REMARK  135  A    between atoms: _347  and  _348
REMARK  136  A    between atoms: _348  and  _349
REMARK  137  A    between atoms: _358  and  _360
REMARK  138  A    between atoms: _360  and  _361
REMARK  139  A    between atoms: _360  and  _363
REMARK  140  A    between atoms: _363  and  _364
REMARK  141  A    between atoms: _364  and  _365
REMARK  142  A    between atoms: _365  and  _366
REMARK  143  A    between atoms: _366  and  _367
REMARK  144  A    between atoms: _371  and  _373
REMARK  145  A    between atoms: _373  and  _374
REMARK  146  A    between atoms: _373  and  _376
REMARK  147  A    between atoms: _376  and  _377
REMARK  148  A    between atoms: _377  and  _378
REMARK  149  A    between atoms: _381  and  _383
REMARK  150  A    between atoms: _383  and  _384
REMARK  151  A    between atoms: _383  and  _386
REMARK  152  A    between atoms: _389  and  _391
REMARK  153  A    between atoms: _391  and  _392
REMARK  154  A    between atoms: _391  and  _394
REMARK  155  A    between atoms: _394  and  _395
REMARK                            x       y       z     vdW  Elec       q    Type
REMARK                         _______ _______ _______ _____ _____    ______ ____
ROOT
ATOM      1  C   ALA A   5      20.118 -18.275  28.365  0.00  0.00    +0.241 C 
ATOM      2  N   ALA A   6      21.333 -17.902  28.688  0.00  0.00    -0.297 N 
ATOM      3  H   ALA A   6      21.473 -17.220  29.460  0.00  0.00    +0.150 HD
ATOM      4  O   ALA A   5      19.903 -19.148  27.517  0.00  0.00    -0.273 OA
ENDROOT
BRANCH   2   5
ATOM      5  CA  ALA A   6      22.454 -18.416  27.999  0.00  0.00    +0.149 C 
ATOM      6  CB  ALA A   6      23.722 -17.520  28.388  0.00  0.00    +0.031 C 
BRANCH   5   7
ATOM      7  C   ALA A   6      22.717 -19.884  28.338  0.00  0.00    +0.241 C 
ATOM      8  N   ASP A   7      22.246 -20.342  29.489  0.00  0.00    -0.297 N 
ATOM      9  H   ASP A   7      21.686 -19.692  30.077  0.00  0.00    +0.150 HD
ATOM     10  O   ALA A   6      23.345 -20.593  27.551  0.00  0.00    -0.273 OA
BRANCH   8  11
ATOM     11  CA  ASP A   7      22.463 -21.715  29.994  0.00  0.00    +0.160 C 
BRANCH  11  12
ATOM     12  C   ASP A   7      21.287 -22.632  29.673  0.00  0.00    +0.241 C 
ATOM     13  O   ASP A   7      21.157 -23.681  30.326  0.00  0.00    -0.273 OA
ATOM     14  N   LYS A   8      20.370 -22.187  28.758  0.00  0.00    -0.298 N 
ATOM     15  H   LYS A   8      20.470 -21.257  28.303  0.00  0.00    +0.150 HD
BRANCH  14  16
ATOM     16  CA  LYS A   8      19.226 -23.081  28.438  0.00  0.00    +0.137 C 
BRANCH  16  17
ATOM     17  C   LYS A   8      19.101 -23.206  26.914  0.00  0.00    +0.227 C 
ATOM     18  O   LYS A   8      19.585 -22.378  26.098  0.00  0.00    -0.286 OA
ENDBRANCH  16  17
BRANCH  16  19
ATOM     19  CB  LYS A   8      17.968 -22.421  28.930  0.00  0.00    +0.028 C 
BRANCH  19  20
ATOM     20  CG  LYS A   8      18.032 -22.425  30.515  0.00  0.00    -0.000 C 
BRANCH  20  21
ATOM     21  CD  LYS A   8      16.747 -22.007  31.203  0.00  0.00    -0.024 C 
BRANCH  21  22
ATOM     22  CE  LYS A   8      16.912 -21.982  32.749  0.00  0.00    -0.086 C 
BRANCH  22  23
ATOM     23  NZ  LYS A   8      16.758 -23.380  33.274  0.00  0.00    +0.380 N 
ATOM     24  HZ1 LYS A   8      16.867 -23.375  34.308  0.00  0.00    -0.089 HD
ATOM     25  HZ2 LYS A   8      15.815 -23.740  33.025  0.00  0.00    -0.089 HD
ATOM     26  HZ3 LYS A   8      17.486 -23.990  32.851  0.00  0.00    -0.089 HD
ENDBRANCH  22  23
ENDBRANCH  21  22
ENDBRANCH  20  21
ENDBRANCH  19  20
ENDBRANCH  16  19
ENDBRANCH  14  16
ENDBRANCH  11  12
BRANCH  11  27
ATOM     27  CB  ASP A   7      22.588 -21.651  31.549  0.00  0.00    +0.143 C 
BRANCH  27  28
ATOM     28  CG  ASP A   7      21.318 -21.013  32.259  0.00  0.00    +0.367 C 
ATOM     29  OD2 ASP A   7      21.012 -21.367  33.460  0.00  0.00    -0.246 OA
ATOM     30  OD1 ASP A   7      20.672 -20.085  31.659  0.00  0.00    -0.246 OA
ENDBRANCH  27  28
ENDBRANCH  11  27
ENDBRANCH   8  11
ENDBRANCH   5   7
ENDBRANCH   2   5
BRANCH   1  31
ATOM     31  CA  ALA A   5      18.982 -17.601  29.134  0.00  0.00    +0.149 C 
ATOM     32  CB  ALA A   5      18.038 -18.594  29.727  0.00  0.00    +0.031 C 
BRANCH  31  35
ATOM     33  C   ALA A   4      18.577 -15.419  28.150  0.00  0.00    +0.241 C 
ATOM     34  O   ALA A   4      19.583 -14.923  28.728  0.00  0.00    -0.273 OA
ATOM     35  N   ALA A   5      18.244 -16.694  28.217  0.00  0.00    -0.297 N 
ATOM     36  H   ALA A   5      17.468 -17.063  27.630  0.00  0.00    +0.150 HD
BRANCH  33  37
ATOM     37  CA  ALA A   4      17.772 -14.483  27.279  0.00  0.00    +0.149 C 
ATOM     38  CB  ALA A   4      16.676 -13.899  28.097  0.00  0.00    +0.031 C 
BRANCH  37  40
ATOM     39  C   GLY A   3      17.998 -15.664  25.145  0.00  0.00    +0.243 C 
ATOM     40  N   ALA A   4      17.226 -15.207  26.094  0.00  0.00    -0.297 N 
ATOM     41  H   ALA A   4      16.199 -15.352  26.022  0.00  0.00    +0.150 HD
ATOM     42  O   GLY A   3      19.244 -15.627  25.221  0.00  0.00    -0.273 OA
BRANCH  39  43
ATOM     43  CA  GLY A   3      17.276 -16.295  23.967  0.00  0.00    +0.176 C 
BRANCH  43  45
ATOM     44  C   GLY A   2      18.827 -17.238  22.316  0.00  0.00    +0.243 C 
ATOM     45  N   GLY A   3      18.055 -17.395  23.377  0.00  0.00    -0.295 N 
ATOM     46  H   GLY A   3      17.995 -18.337  23.814  0.00  0.00    +0.150 HD
ATOM     47  O   GLY A   2      18.862 -16.170  21.642  0.00  0.00    -0.273 OA
BRANCH  44  48
ATOM     48  CA  GLY A   2      19.607 -18.443  21.820  0.00  0.00    +0.176 C 
BRANCH  48  50
ATOM     49  C   GLY A   1      18.330 -20.448  22.072  0.00  0.00    +0.240 C 
ATOM     50  N   GLY A   2      19.288 -19.650  22.545  0.00  0.00    -0.295 N 
ATOM     51  H   GLY A   2      19.796 -19.893  23.420  0.00  0.00    +0.150 HD
ATOM     52  O   GLY A   1      17.662 -20.239  21.067  0.00  0.00    -0.274 OA
BRANCH  49  53
ATOM     53  CA  GLY A   1      18.082 -21.647  22.988  0.00  0.00    +0.169 C 
BRANCH  53  54
ATOM     54  N   GLY A   1      17.277 -22.729  22.320  0.00  0.00    -0.236 NA
ATOM     55  H   GLY A   1      16.240 -22.651  22.331  0.00  0.00    +0.142 HD
ENDBRANCH  53  54
ENDBRANCH  49  53
ENDBRANCH  48  50
ENDBRANCH  44  48
ENDBRANCH  43  45
ENDBRANCH  39  43
ENDBRANCH  37  40
ENDBRANCH  33  37
ENDBRANCH  31  35
ENDBRANCH   1  31
TORSDOF 23
REMARK  Name = ../refined-set-2016/3arq/3arq_pocket.pdb
REMARK  155 active torsions:
REMARK  status: ('A' for Active; 'I' for Inactive)
REMARK    1  A    between atoms: _1  and  _3
REMARK    2  A    between atoms: _3  and  _4
REMARK    3  A    between atoms: _3  and  _6
REMARK    4  A    between atoms: _6  and  _7
REMARK    5  A    between atoms: _17  and  _19
REMARK    6  A    between atoms: _19  and  _20
REMARK    7  A    between atoms: _19  and  _22
REMARK    8  A    between atoms: _22  and  _23
REMARK    9  A    between atoms: _29  and  _31
REMARK   10  A    between atoms: _31  and  _32
REMARK   11  A    between atoms: _31  and  _34
REMARK   12  A    between atoms: _34  and  _35
REMARK   13  A    between atoms: _37  and  _39
REMARK   14  A    between atoms: _39  and  _40
REMARK   15  A    between atoms: _39  and  _42
REMARK   16  A    between atoms: _45  and  _47
REMARK   17  A    between atoms: _47  and  _48
REMARK   18  A    between atoms: _50  and  _52
REMARK   19  A    between atoms: _52  and  _53
REMARK   20  A    between atoms: _52  and  _55
REMARK   21  A    between atoms: _55  and  _56
REMARK   22  A    between atoms: _66  and  _68
REMARK   23  A    between atoms: _68  and  _69
REMARK   24  A    between atoms: _68  and  _71
REMARK   25  A    between atoms: _71  and  _72
REMARK   26  A    between atoms: _75  and  _77
REMARK   27  A    between atoms: _77  and  _78
REMARK   28  A    between atoms: _77  and  _80
REMARK   29  A    between atoms: _80  and  _81
REMARK   30  A    between atoms: _86  and  _87
REMARK   31  A    between atoms: _89  and  _91
REMARK   32  A    between atoms: _91  and  _92
REMARK   33  A    between atoms: _91  and  _94
REMARK   34  A    between atoms: _94  and  _95
REMARK   35  A    between atoms: _95  and  _96
REMARK   36  A    between atoms: _99  and  _101
REMARK   37  A    between atoms: _101  and  _102
REMARK   38  A    between atoms: _101  and  _104
REMARK   39  A    between atoms: _104  and  _105
REMARK   40  A    between atoms: _111  and  _113
REMARK   41  A    between atoms: _113  and  _114
REMARK   42  A    between atoms: _116  and  _118
REMARK   43  A    between atoms: _118  and  _119
REMARK   44  A    between atoms: _121  and  _123
REMARK   45  A    between atoms: _123  and  _124
REMARK   46  A    between atoms: _126  and  _128
REMARK   47  A    between atoms: _128  and  _129
REMARK   48  A    between atoms: _132  and  _134
REMARK   49  A    between atoms: _134  and  _135
REMARK   50  A    between atoms: _138  and  _140
REMARK   51  A    between atoms: _140  and  _141
REMARK   52  A    between atoms: _144  and  _146
REMARK   53  A    between atoms: _146  and  _147
REMARK   54  A    between atoms: _146  and  _149
REMARK   55  A    between atoms: _149  and  _150
REMARK   56  A    between atoms: _153  and  _155
REMARK   57  A    between atoms: _155  and  _156
REMARK   58  A    between atoms: _155  and  _158
REMARK   59  A    between atoms: _158  and  _159
REMARK   60  A    between atoms: _159  and  _160
REMARK   61  A    between atoms: _160  and  _161
REMARK   62  A    between atoms: _161  and  _162
REMARK   63  A    between atoms: _166  and  _168
REMARK   64  A    between atoms: _168  and  _169
REMARK   65  A    between atoms: _171  and  _173
REMARK   66  A    between atoms: _173  and  _174
REMARK   67  A    between atoms: _173  and  _176
REMARK   68  A    between atoms: _179  and  _181
REMARK   69  A    between atoms: _181  and  _182
REMARK   70  A    between atoms: _184  and  _186
REMARK   71  A    between atoms: _186  and  _187
REMARK   72  A    between atoms: _186  and  _189
REMARK   73  A    between atoms: _189  and  _190
REMARK   74  A    between atoms: _193  and  _195
REMARK   75  A    between atoms: _195  and  _196
REMARK   76  A    between atoms: _195  and  _198
REMARK   77  A    between atoms: _198  and  _199
REMARK   78  A    between atoms: _199  and  _200
REMARK   79  A    between atoms: _200  and  _201
REMARK   80  A    between atoms: _201  and  _202
REMARK   81  A    between atoms: _206  and  _208
REMARK   82  A    between atoms: _208  and  _209
REMARK   83  A    between atoms: _208  and  _211
REMARK   84  A    between atoms: _211  and  _212
REMARK   85  A    between atoms: _212  and  _213
REMARK   86  A    between atoms: _215  and  _217
REMARK   87  A    between atoms: _217  and  _218
REMARK   88  A    between atoms: _217  and  _220
REMARK   89  A    between atoms: _220  and  _221
REMARK   90  A    between atoms: _226  and  _227
REMARK   91  A    between atoms: _229  and  _231
REMARK   92  A    between atoms: _231  and  _232
REMARK   93  A    between atoms: _231  and  _234
REMARK   94  A    between atoms: _234  and  _235
REMARK   95  A    between atoms: _238  and  _240
REMARK   96  A    between atoms: _240  and  _241
REMARK   97  A    between atoms: _240  and  _243
REMARK   98  A    between atoms: _243  and  _244
REMARK   99  A    between atoms: _250  and  _252
REMARK  100  A    between atoms: _252  and  _253
REMARK  101  A    between atoms: _252  and  _255
REMARK  102  A    between atoms: _255  and  _256
REMARK  103  A    between atoms: _261  and  _262
REMARK  104  A    between atoms: _264  and  _266
REMARK  105  A    between atoms: _266  and  _267
REMARK  106  A    between atoms: _269  and  _271
REMARK  107  A    between atoms: _271  and  _272
REMARK  108  A    between atoms: _274  and  _276
REMARK  109  A    between atoms: _276  and  _277
REMARK  110  A    between atoms: _276  and  _279
REMARK  111  A    between atoms: _279  and  _280
REMARK  112  A    between atoms: _290  and  _292
REMARK  113  A    between atoms: _292  and  _293
REMARK  114  A    between atoms: _292  and  _295
REMARK  115  A    between atoms: _295  and  _296
REMARK  116  A    between atoms: _301  and  _303
REMARK  117  A    between atoms: _303  and  _304
REMARK  118  A    between atoms: _303  and  _306
REMARK  119  A    between atoms: _306  and  _307
REMARK  120  A    between atoms: _307  and  _308
REMARK  121  A    between atoms: _313  and  _315
REMARK  122  A    between atoms: _315  and  _316
REMARK  123  A    between atoms: _315  and  _318
REMARK  124  A    between atoms: _318  and  _319
REMARK  125  A    between atoms: _324  and  _325
REMARK  126  A    between atoms: _327  and  _329
REMARK  127  A    between atoms: _329  and  _330
REMARK  128  A    between atoms: _329  and  _332
REMARK  129  A    between atoms: _332  and  _333
REMARK  130  A    between atoms: _338  and  _339
REMARK  131  A    between atoms: _341  and  _343
REMARK  132  A    between atoms: _343  and  _344
REMARK  133  A    between atoms: _343  and  _346
REMARK  134  A    between atoms: _346  and  _347
REMARK  135  A    between atoms: _347  and  _348
REMARK  136  A    between atoms: _348  and  _349
REMARK  137  A    between atoms: _358  and  _360
REMARK  138  A    between atoms: _360  and  _361
REMARK  139  A    between atoms: _360  and  _363
REMARK  140  A    between atoms: _363  and  _364
REMARK  141  A    between atoms: _364  and  _365
REMARK  142  A    between atoms: _365  and  _366
REMARK  143  A    between atoms: _366  and  _367
REMARK  144  A    between atoms: _371  and  _373
REMARK  145  A    between atoms: _373  and  _374
REMARK  146  A    between atoms: _373  and  _376
REMARK  147  A    between atoms: _376  and  _377
REMARK  148  A    between atoms: _377  and  _378
REMARK  149  A    between atoms: _381  and  _383
REMARK  150  A    between atoms: _383  and  _384
REMARK  151  A    between atoms: _383  and  _386
REMARK  152  A    between atoms: _389  and  _391
REMARK  153  A    between atoms: _391  and  _392
REMARK  154  A    between atoms: _391  and  _394
REMARK  155  A    between atoms: _394  and  _395
REMARK                            x       y       z     vdW  Elec       q    Type
REMARK                         _______ _______ _______ _____ _____    ______ ____
ROOT
ATOM      1  CA  VAL A   2      12.726 -16.568  11.952  0.00  0.00    +0.148 C 
ENDROOT
BRANCH   1   4
ATOM      2  C   GLY A   1      12.078 -17.099  14.240  0.00  0.00    +0.240 C 
ATOM      3  O   GLY A   1      11.571 -18.182  13.839  0.00  0.00    -0.274 OA
ATOM      4  N   VAL A   2      12.673 -16.218  13.394  0.00  0.00    -0.297 N 
ATOM      5  H   VAL A   2      13.078 -15.327  13.745  0.00  0.00    +0.150 HD
BRANCH   2   6
ATOM      6  CA  GLY A   1      12.071 -16.735  15.717  0.00  0.00    +0.169 C 
BRANCH   6   7
ATOM      7  N   GLY A   1      10.870 -17.266  16.369  0.00  0.00    -0.236 NA
ATOM      8  H   GLY A   1      10.970 -18.028  17.070  0.00  0.00    +0.142 HD
ENDBRANCH   6   7
ENDBRANCH   2   6
ENDBRANCH   1   4
BRANCH   1   9
ATOM      9  C   VAL A   2      14.159 -16.642  11.402  0.00  0.00    +0.241 C 
ATOM     10  N   GLY A   3      15.189 -16.510  12.255  0.00  0.00    -0.296 N 
ATOM     11  H   GLY A   3      15.041 -16.132  13.212  0.00  0.00    +0.150 HD
ATOM     12  O   VAL A   2      14.314 -16.907  10.203  0.00  0.00    -0.273 OA
BRANCH  10  13
ATOM     13  CA  GLY A   3      16.560 -16.921  11.795  0.00  0.00    +0.163 C 
BRANCH  13  14
ATOM     14  C   GLY A   3      16.562 -18.417  11.526  0.00  0.00    +0.229 C 
ATOM     15  O   GLY A   3      15.841 -19.200  12.121  0.00  0.00    -0.286 OA
ENDBRANCH  13  14
ENDBRANCH  10  13
ENDBRANCH   1   9
BRANCH   1  16
ATOM     16  CB  VAL A   2      11.903 -15.623  11.081  0.00  0.00    +0.027 C 
ATOM     17  CG2 VAL A   2      10.428 -15.582  11.562  0.00  0.00    +0.002 C 
ATOM     18  CG1 VAL A   2      12.541 -14.235  11.102  0.00  0.00    +0.002 C 
ENDBRANCH   1  16
TORSDOF 7
REMARK  Name = ../refined-set-2016/3arq/3arq_pocket.pdb
REMARK  155 active torsions:
REMARK  status: ('A' for Active; 'I' for Inactive)
REMARK    1  A    between atoms: _1  and  _3
REMARK    2  A    between atoms: _3  and  _4
REMARK    3  A    between atoms: _3  and  _6
REMARK    4  A    between atoms: _6  and  _7
REMARK    5  A    between atoms: _17  and  _19
REMARK    6  A    between atoms: _19  and  _20
REMARK    7  A    between atoms: _19  and  _22
REMARK    8  A    between atoms: _22  and  _23
REMARK    9  A    between atoms: _29  and  _31
REMARK   10  A    between atoms: _31  and  _32
REMARK   11  A    between atoms: _31  and  _34
REMARK   12  A    between atoms: _34  and  _35
REMARK   13  A    between atoms: _37  and  _39
REMARK   14  A    between atoms: _39  and  _40
REMARK   15  A    between atoms: _39  and  _42
REMARK   16  A    between atoms: _45  and  _47
REMARK   17  A    between atoms: _47  and  _48
REMARK   18  A    between atoms: _50  and  _52
REMARK   19  A    between atoms: _52  and  _53
REMARK   20  A    between atoms: _52  and  _55
REMARK   21  A    between atoms: _55  and  _56
REMARK   22  A    between atoms: _66  and  _68
REMARK   23  A    between atoms: _68  and  _69
REMARK   24  A    between atoms: _68  and  _71
REMARK   25  A    between atoms: _71  and  _72
REMARK   26  A    between atoms: _75  and  _77
REMARK   27  A    between atoms: _77  and  _78
REMARK   28  A    between atoms: _77  and  _80
REMARK   29  A    between atoms: _80  and  _81
REMARK   30  A    between atoms: _86  and  _87
REMARK   31  A    between atoms: _89  and  _91
REMARK   32  A    between atoms: _91  and  _92
REMARK   33  A    between atoms: _91  and  _94
REMARK   34  A    between atoms: _94  and  _95
REMARK   35  A    between atoms: _95  and  _96
REMARK   36  A    between atoms: _99  and  _101
REMARK   37  A    between atoms: _101  and  _102
REMARK   38  A    between atoms: _101  and  _104
REMARK   39  A    between atoms: _104  and  _105
REMARK   40  A    between atoms: _111  and  _113
REMARK   41  A    between atoms: _113  and  _114
REMARK   42  A    between atoms: _116  and  _118
REMARK   43  A    between atoms: _118  and  _119
REMARK   44  A    between atoms: _121  and  _123
REMARK   45  A    between atoms: _123  and  _124
REMARK   46  A    between atoms: _126  and  _128
REMARK   47  A    between atoms: _128  and  _129
REMARK   48  A    between atoms: _132  and  _134
REMARK   49  A    between atoms: _134  and  _135
REMARK   50  A    between atoms: _138  and  _140
REMARK   51  A    between atoms: _140  and  _141
REMARK   52  A    between atoms: _144  and  _146
REMARK   53  A    between atoms: _146  and  _147
REMARK   54  A    between atoms: _146  and  _149
REMARK   55  A    between atoms: _149  and  _150
REMARK   56  A    between atoms: _153  and  _155
REMARK   57  A    between atoms: _155  and  _156
REMARK   58  A    between atoms: _155  and  _158
REMARK   59  A    between atoms: _158  and  _159
REMARK   60  A    between atoms: _159  and  _160
REMARK   61  A    between atoms: _160  and  _161
REMARK   62  A    between atoms: _161  and  _162
REMARK   63  A    between atoms: _166  and  _168
REMARK   64  A    between atoms: _168  and  _169
REMARK   65  A    between atoms: _171  and  _173
REMARK   66  A    between atoms: _173  and  _174
REMARK   67  A    between atoms: _173  and  _176
REMARK   68  A    between atoms: _179  and  _181
REMARK   69  A    between atoms: _181  and  _182
REMARK   70  A    between atoms: _184  and  _186
REMARK   71  A    between atoms: _186  and  _187
REMARK   72  A    between atoms: _186  and  _189
REMARK   73  A    between atoms: _189  and  _190
REMARK   74  A    between atoms: _193  and  _195
REMARK   75  A    between atoms: _195  and  _196
REMARK   76  A    between atoms: _195  and  _198
REMARK   77  A    between atoms: _198  and  _199
REMARK   78  A    between atoms: _199  and  _200
REMARK   79  A    between atoms: _200  and  _201
REMARK   80  A    between atoms: _201  and  _202
REMARK   81  A    between atoms: _206  and  _208
REMARK   82  A    between atoms: _208  and  _209
REMARK   83  A    between atoms: _208  and  _211
REMARK   84  A    between atoms: _211  and  _212
REMARK   85  A    between atoms: _212  and  _213
REMARK   86  A    between atoms: _215  and  _217
REMARK   87  A    between atoms: _217  and  _218
REMARK   88  A    between atoms: _217  and  _220
REMARK   89  A    between atoms: _220  and  _221
REMARK   90  A    between atoms: _226  and  _227
REMARK   91  A    between atoms: _229  and  _231
REMARK   92  A    between atoms: _231  and  _232
REMARK   93  A    between atoms: _231  and  _234
REMARK   94  A    between atoms: _234  and  _235
REMARK   95  A    between atoms: _238  and  _240
REMARK   96  A    between atoms: _240  and  _241
REMARK   97  A    between atoms: _240  and  _243
REMARK   98  A    between atoms: _243  and  _244
REMARK   99  A    between atoms: _250  and  _252
REMARK  100  A    between atoms: _252  and  _253
REMARK  101  A    between atoms: _252  and  _255
REMARK  102  A    between atoms: _255  and  _256
REMARK  103  A    between atoms: _261  and  _262
REMARK  104  A    between atoms: _264  and  _266
REMARK  105  A    between atoms: _266  and  _267
REMARK  106  A    between atoms: _269  and  _271
REMARK  107  A    between atoms: _271  and  _272
REMARK  108  A    between atoms: _274  and  _276
REMARK  109  A    between atoms: _276  and  _277
REMARK  110  A    between atoms: _276  and  _279
REMARK  111  A    between atoms: _279  and  _280
REMARK  112  A    between atoms: _290  and  _292
REMARK  113  A    between atoms: _292  and  _293
REMARK  114  A    between atoms: _292  and  _295
REMARK  115  A    between atoms: _295  and  _296
REMARK  116  A    between atoms: _301  and  _303
REMARK  117  A    between atoms: _303  and  _304
REMARK  118  A    between atoms: _303  and  _306
REMARK  119  A    between atoms: _306  and  _307
REMARK  120  A    between atoms: _307  and  _308
REMARK  121  A    between atoms: _313  and  _315
REMARK  122  A    between atoms: _315  and  _316
REMARK  123  A    between atoms: _315  and  _318
REMARK  124  A    between atoms: _318  and  _319
REMARK  125  A    between atoms: _324  and  _325
REMARK  126  A    between atoms: _327  and  _329
REMARK  127  A    between atoms: _329  and  _330
REMARK  128  A    between atoms: _329  and  _332
REMARK  129  A    between atoms: _332  and  _333
REMARK  130  A    between atoms: _338  and  _339
REMARK  131  A    between atoms: _341  and  _343
REMARK  132  A    between atoms: _343  and  _344
REMARK  133  A    between atoms: _343  and  _346
REMARK  134  A    between atoms: _346  and  _347
REMARK  135  A    between atoms: _347  and  _348
REMARK  136  A    between atoms: _348  and  _349
REMARK  137  A    between atoms: _358  and  _360
REMARK  138  A    between atoms: _360  and  _361
REMARK  139  A    between atoms: _360  and  _363
REMARK  140  A    between atoms: _363  and  _364
REMARK  141  A    between atoms: _364  and  _365
REMARK  142  A    between atoms: _365  and  _366
REMARK  143  A    between atoms: _366  and  _367
REMARK  144  A    between atoms: _371  and  _373
REMARK  145  A    between atoms: _373  and  _374
REMARK  146  A    between atoms: _373  and  _376
REMARK  147  A    between atoms: _376  and  _377
REMARK  148  A    between atoms: _377  and  _378
REMARK  149  A    between atoms: _381  and  _383
REMARK  150  A    between atoms: _383  and  _384
REMARK  151  A    between atoms: _383  and  _386
REMARK  152  A    between atoms: _389  and  _391
REMARK  153  A    between atoms: _391  and  _392
REMARK  154  A    between atoms: _391  and  _394
REMARK  155  A    between atoms: _394  and  _395
REMARK                            x       y       z     vdW  Elec       q    Type
REMARK                         _______ _______ _______ _____ _____    ______ ____
ROOT
ATOM      1  C   ASP A   1      17.944 -21.527  14.480  0.00  0.00    +0.239 C 
ATOM      2  O   ASP A   1      18.023 -22.427  15.332  0.00  0.00    -0.274 OA
ATOM      3  N   LYS A   2      16.882 -20.674  14.415  0.00  0.00    -0.298 N 
ATOM      4  H   LYS A   2      16.889 -19.875  13.749  0.00  0.00    +0.150 HD
ENDROOT
BRANCH   1   5
ATOM      5  CA  ASP A   1      19.003 -21.403  13.411  0.00  0.00    +0.156 C 
BRANCH   5   6
ATOM      6  N   ASP A   1      18.552 -20.546  12.289  0.00  0.00    -0.238 NA
ATOM      7  H   ASP A   1      18.838 -19.547  12.238  0.00  0.00    +0.142 HD
ENDBRANCH   5   6
BRANCH   5   8
ATOM      8  CB  ASP A   1      20.243 -20.835  14.062  0.00  0.00    +0.140 C 
BRANCH   8   9
ATOM      9  CG  ASP A   1      20.035 -19.429  14.537  0.00  0.00    +0.367 C 
ATOM     10  OD2 ASP A   1      20.181 -19.169  15.749  0.00  0.00    -0.246 OA
ATOM     11  OD1 ASP A   1      19.815 -18.545  13.665  0.00  0.00    -0.246 OA
ENDBRANCH   8   9
ENDBRANCH   5   8
ENDBRANCH   1   5
BRANCH   3  12
ATOM     12  CA  LYS A   2      15.737 -20.895  15.289  0.00  0.00    +0.137 C 
BRANCH  12  13
ATOM     13  C   LYS A   2      14.758 -21.839  14.590  0.00  0.00    +0.227 C 
ATOM     14  O   LYS A   2      14.224 -22.800  15.209  0.00  0.00    -0.286 OA
ENDBRANCH  12  13
BRANCH  12  15
ATOM     15  CB  LYS A   2      15.005 -19.546  15.579  0.00  0.00    +0.028 C 
BRANCH  15  16
ATOM     16  CG  LYS A   2      15.902 -18.482  16.233  0.00  0.00    -0.000 C 
BRANCH  16  17
ATOM     17  CD  LYS A   2      16.557 -19.082  17.455  0.00  0.00    -0.024 C 
BRANCH  17  18
ATOM     18  CE  LYS A   2      17.303 -17.913  18.285  0.00  0.00    -0.086 C 
BRANCH  18  19
ATOM     19  NZ  LYS A   2      18.519 -17.465  17.513  0.00  0.00    +0.380 N 
ATOM     20  HZ1 LYS A   2      19.005 -16.712  18.041  0.00  0.00    -0.089 HD
ATOM     21  HZ2 LYS A   2      19.163 -18.271  17.384  0.00  0.00    -0.089 HD
ATOM     22  HZ3 LYS A   2      18.224 -17.104  16.583  0.00  0.00    -0.089 HD
ENDBRANCH  18  19
ENDBRANCH  17  18
ENDBRANCH  16  17
ENDBRANCH  15  16
ENDBRANCH  12  15
ENDBRANCH   3  12
TORSDOF 11
REMARK  Name = ../refined-set-2016/3arq/3arq_pocket.pdb
REMARK  155 active torsions:
REMARK  status: ('A' for Active; 'I' for Inactive)
REMARK    1  A    between atoms: _1  and  _3
REMARK    2  A    between atoms: _3  and  _4
REMARK    3  A    between atoms: _3  and  _6
REMARK    4  A    between atoms: _6  and  _7
REMARK    5  A    between atoms: _17  and  _19
REMARK    6  A    between atoms: _19  and  _20
REMARK    7  A    between atoms: _19  and  _22
REMARK    8  A    between atoms: _22  and  _23
REMARK    9  A    between atoms: _29  and  _31
REMARK   10  A    between atoms: _31  and  _32
REMARK   11  A    between atoms: _31  and  _34
REMARK   12  A    between atoms: _34  and  _35
REMARK   13  A    between atoms: _37  and  _39
REMARK   14  A    between atoms: _39  and  _40
REMARK   15  A    between atoms: _39  and  _42
REMARK   16  A    between atoms: _45  and  _47
REMARK   17  A    between atoms: _47  and  _48
REMARK   18  A    between atoms: _50  and  _52
REMARK   19  A    between atoms: _52  and  _53
REMARK   20  A    between atoms: _52  and  _55
REMARK   21  A    between atoms: _55  and  _56
REMARK   22  A    between atoms: _66  and  _68
REMARK   23  A    between atoms: _68  and  _69
REMARK   24  A    between atoms: _68  and  _71
REMARK   25  A    between atoms: _71  and  _72
REMARK   26  A    between atoms: _75  and  _77
REMARK   27  A    between atoms: _77  and  _78
REMARK   28  A    between atoms: _77  and  _80
REMARK   29  A    between atoms: _80  and  _81
REMARK   30  A    between atoms: _86  and  _87
REMARK   31  A    between atoms: _89  and  _91
REMARK   32  A    between atoms: _91  and  _92
REMARK   33  A    between atoms: _91  and  _94
REMARK   34  A    between atoms: _94  and  _95
REMARK   35  A    between atoms: _95  and  _96
REMARK   36  A    between atoms: _99  and  _101
REMARK   37  A    between atoms: _101  and  _102
REMARK   38  A    between atoms: _101  and  _104
REMARK   39  A    between atoms: _104  and  _105
REMARK   40  A    between atoms: _111  and  _113
REMARK   41  A    between atoms: _113  and  _114
REMARK   42  A    between atoms: _116  and  _118
REMARK   43  A    between atoms: _118  and  _119
REMARK   44  A    between atoms: _121  and  _123
REMARK   45  A    between atoms: _123  and  _124
REMARK   46  A    between atoms: _126  and  _128
REMARK   47  A    between atoms: _128  and  _129
REMARK   48  A    between atoms: _132  and  _134
REMARK   49  A    between atoms: _134  and  _135
REMARK   50  A    between atoms: _138  and  _140
REMARK   51  A    between atoms: _140  and  _141
REMARK   52  A    between atoms: _144  and  _146
REMARK   53  A    between atoms: _146  and  _147
REMARK   54  A    between atoms: _146  and  _149
REMARK   55  A    between atoms: _149  and  _150
REMARK   56  A    between atoms: _153  and  _155
REMARK   57  A    between atoms: _155  and  _156
REMARK   58  A    between atoms: _155  and  _158
REMARK   59  A    between atoms: _158  and  _159
REMARK   60  A    between atoms: _159  and  _160
REMARK   61  A    between atoms: _160  and  _161
REMARK   62  A    between atoms: _161  and  _162
REMARK   63  A    between atoms: _166  and  _168
REMARK   64  A    between atoms: _168  and  _169
REMARK   65  A    between atoms: _171  and  _173
REMARK   66  A    between atoms: _173  and  _174
REMARK   67  A    between atoms: _173  and  _176
REMARK   68  A    between atoms: _179  and  _181
REMARK   69  A    between atoms: _181  and  _182
REMARK   70  A    between atoms: _184  and  _186
REMARK   71  A    between atoms: _186  and  _187
REMARK   72  A    between atoms: _186  and  _189
REMARK   73  A    between atoms: _189  and  _190
REMARK   74  A    between atoms: _193  and  _195
REMARK   75  A    between atoms: _195  and  _196
REMARK   76  A    between atoms: _195  and  _198
REMARK   77  A    between atoms: _198  and  _199
REMARK   78  A    between atoms: _199  and  _200
REMARK   79  A    between atoms: _200  and  _201
REMARK   80  A    between atoms: _201  and  _202
REMARK   81  A    between atoms: _206  and  _208
REMARK   82  A    between atoms: _208  and  _209
REMARK   83  A    between atoms: _208  and  _211
REMARK   84  A    between atoms: _211  and  _212
REMARK   85  A    between atoms: _212  and  _213
REMARK   86  A    between atoms: _215  and  _217
REMARK   87  A    between atoms: _217  and  _218
REMARK   88  A    between atoms: _217  and  _220
REMARK   89  A    between atoms: _220  and  _221
REMARK   90  A    between atoms: _226  and  _227
REMARK   91  A    between atoms: _229  and  _231
REMARK   92  A    between atoms: _231  and  _232
REMARK   93  A    between atoms: _231  and  _234
REMARK   94  A    between atoms: _234  and  _235
REMARK   95  A    between atoms: _238  and  _240
REMARK   96  A    between atoms: _240  and  _241
REMARK   97  A    between atoms: _240  and  _243
REMARK   98  A    between atoms: _243  and  _244
REMARK   99  A    between atoms: _250  and  _252
REMARK  100  A    between atoms: _252  and  _253
REMARK  101  A    between atoms: _252  and  _255
REMARK  102  A    between atoms: _255  and  _256
REMARK  103  A    between atoms: _261  and  _262
REMARK  104  A    between atoms: _264  and  _266
REMARK  105  A    between atoms: _266  and  _267
REMARK  106  A    between atoms: _269  and  _271
REMARK  107  A    between atoms: _271  and  _272
REMARK  108  A    between atoms: _274  and  _276
REMARK  109  A    between atoms: _276  and  _277
REMARK  110  A    between atoms: _276  and  _279
REMARK  111  A    between atoms: _279  and  _280
REMARK  112  A    between atoms: _290  and  _292
REMARK  113  A    between atoms: _292  and  _293
REMARK  114  A    between atoms: _292  and  _295
REMARK  115  A    between atoms: _295  and  _296
REMARK  116  A    between atoms: _301  and  _303
REMARK  117  A    between atoms: _303  and  _304
REMARK  118  A    between atoms: _303  and  _306
REMARK  119  A    between atoms: _306  and  _307
REMARK  120  A    between atoms: _307  and  _308
REMARK  121  A    between atoms: _313  and  _315
REMARK  122  A    between atoms: _315  and  _316
REMARK  123  A    between atoms: _315  and  _318
REMARK  124  A    between atoms: _318  and  _319
REMARK  125  A    between atoms: _324  and  _325
REMARK  126  A    between atoms: _327  and  _329
REMARK  127  A    between atoms: _329  and  _330
REMARK  128  A    between atoms: _329  and  _332
REMARK  129  A    between atoms: _332  and  _333
REMARK  130  A    between atoms: _338  and  _339
REMARK  131  A    between atoms: _341  and  _343
REMARK  132  A    between atoms: _343  and  _344
REMARK  133  A    between atoms: _343  and  _346
REMARK  134  A    between atoms: _346  and  _347
REMARK  135  A    between atoms: _347  and  _348
REMARK  136  A    between atoms: _348  and  _349
REMARK  137  A    between atoms: _358  and  _360
REMARK  138  A    between atoms: _360  and  _361
REMARK  139  A    between atoms: _360  and  _363
REMARK  140  A    between atoms: _363  and  _364
REMARK  141  A    between atoms: _364  and  _365
REMARK  142  A    between atoms: _365  and  _366
REMARK  143  A    between atoms: _366  and  _367
REMARK  144  A    between atoms: _371  and  _373
REMARK  145  A    between atoms: _373  and  _374
REMARK  146  A    between atoms: _373  and  _376
REMARK  147  A    between atoms: _376  and  _377
REMARK  148  A    between atoms: _377  and  _378
REMARK  149  A    between atoms: _381  and  _383
REMARK  150  A    between atoms: _383  and  _384
REMARK  151  A    between atoms: _383  and  _386
REMARK  152  A    between atoms: _389  and  _391
REMARK  153  A    between atoms: _391  and  _392
REMARK  154  A    between atoms: _391  and  _394
REMARK  155  A    between atoms: _394  and  _395
REMARK                            x       y       z     vdW  Elec       q    Type
REMARK                         _______ _______ _______ _____ _____    ______ ____
ROOT
ATOM      1  CA  MET A   1       9.053 -12.377  14.490  0.00  0.00    +0.134 C 
ENDROOT
BRANCH   1   2
ATOM      2  N   MET A   1       8.373 -13.574  13.879  0.00  0.00    -0.239 NA
ATOM      3  H   MET A   1       8.656 -14.531  14.170  0.00  0.00    +0.142 HD
ENDBRANCH   1   2
BRANCH   1   4
ATOM      4  C   MET A   1      10.069 -11.836  13.493  0.00  0.00    +0.224 C 
ATOM      5  O   MET A   1      11.283 -12.031  13.681  0.00  0.00    -0.287 OA
ENDBRANCH   1   4
BRANCH   1   6
ATOM      6  CB  MET A   1       9.765 -12.800  15.751  0.00  0.00    +0.037 C 
BRANCH   6   7
ATOM      7  CG  MET A   1       8.764 -13.264  16.844  0.00  0.00    +0.059 C 
BRANCH   7   8
ATOM      8  SD  MET A   1       9.650 -14.029  18.287  0.00  0.00    -0.139 S 
ATOM      9  CE  MET A   1      10.802 -12.903  18.735  0.00  0.00    +0.069 C 
ENDBRANCH   7   8
ENDBRANCH   6   7
ENDBRANCH   1   6
TORSDOF 5
REMARK  Name = ../refined-set-2016/3arq/3arq_pocket.pdb
REMARK  155 active torsions:
REMARK  status: ('A' for Active; 'I' for Inactive)
REMARK    1  A    between atoms: _1  and  _3
REMARK    2  A    between atoms: _3  and  _4
REMARK    3  A    between atoms: _3  and  _6
REMARK    4  A    between atoms: _6  and  _7
REMARK    5  A    between atoms: _17  and  _19
REMARK    6  A    between atoms: _19  and  _20
REMARK    7  A    between atoms: _19  and  _22
REMARK    8  A    between atoms: _22  and  _23
REMARK    9  A    between atoms: _29  and  _31
REMARK   10  A    between atoms: _31  and  _32
REMARK   11  A    between atoms: _31  and  _34
REMARK   12  A    between atoms: _34  and  _35
REMARK   13  A    between atoms: _37  and  _39
REMARK   14  A    between atoms: _39  and  _40
REMARK   15  A    between atoms: _39  and  _42
REMARK   16  A    between atoms: _45  and  _47
REMARK   17  A    between atoms: _47  and  _48
REMARK   18  A    between atoms: _50  and  _52
REMARK   19  A    between atoms: _52  and  _53
REMARK   20  A    between atoms: _52  and  _55
REMARK   21  A    between atoms: _55  and  _56
REMARK   22  A    between atoms: _66  and  _68
REMARK   23  A    between atoms: _68  and  _69
REMARK   24  A    between atoms: _68  and  _71
REMARK   25  A    between atoms: _71  and  _72
REMARK   26  A    between atoms: _75  and  _77
REMARK   27  A    between atoms: _77  and  _78
REMARK   28  A    between atoms: _77  and  _80
REMARK   29  A    between atoms: _80  and  _81
REMARK   30  A    between atoms: _86  and  _87
REMARK   31  A    between atoms: _89  and  _91
REMARK   32  A    between atoms: _91  and  _92
REMARK   33  A    between atoms: _91  and  _94
REMARK   34  A    between atoms: _94  and  _95
REMARK   35  A    between atoms: _95  and  _96
REMARK   36  A    between atoms: _99  and  _101
REMARK   37  A    between atoms: _101  and  _102
REMARK   38  A    between atoms: _101  and  _104
REMARK   39  A    between atoms: _104  and  _105
REMARK   40  A    between atoms: _111  and  _113
REMARK   41  A    between atoms: _113  and  _114
REMARK   42  A    between atoms: _116  and  _118
REMARK   43  A    between atoms: _118  and  _119
REMARK   44  A    between atoms: _121  and  _123
REMARK   45  A    between atoms: _123  and  _124
REMARK   46  A    between atoms: _126  and  _128
REMARK   47  A    between atoms: _128  and  _129
REMARK   48  A    between atoms: _132  and  _134
REMARK   49  A    between atoms: _134  and  _135
REMARK   50  A    between atoms: _138  and  _140
REMARK   51  A    between atoms: _140  and  _141
REMARK   52  A    between atoms: _144  and  _146
REMARK   53  A    between atoms: _146  and  _147
REMARK   54  A    between atoms: _146  and  _149
REMARK   55  A    between atoms: _149  and  _150
REMARK   56  A    between atoms: _153  and  _155
REMARK   57  A    between atoms: _155  and  _156
REMARK   58  A    between atoms: _155  and  _158
REMARK   59  A    between atoms: _158  and  _159
REMARK   60  A    between atoms: _159  and  _160
REMARK   61  A    between atoms: _160  and  _161
REMARK   62  A    between atoms: _161  and  _162
REMARK   63  A    between atoms: _166  and  _168
REMARK   64  A    between atoms: _168  and  _169
REMARK   65  A    between atoms: _171  and  _173
REMARK   66  A    between atoms: _173  and  _174
REMARK   67  A    between atoms: _173  and  _176
REMARK   68  A    between atoms: _179  and  _181
REMARK   69  A    between atoms: _181  and  _182
REMARK   70  A    between atoms: _184  and  _186
REMARK   71  A    between atoms: _186  and  _187
REMARK   72  A    between atoms: _186  and  _189
REMARK   73  A    between atoms: _189  and  _190
REMARK   74  A    between atoms: _193  and  _195
REMARK   75  A    between atoms: _195  and  _196
REMARK   76  A    between atoms: _195  and  _198
REMARK   77  A    between atoms: _198  and  _199
REMARK   78  A    between atoms: _199  and  _200
REMARK   79  A    between atoms: _200  and  _201
REMARK   80  A    between atoms: _201  and  _202
REMARK   81  A    between atoms: _206  and  _208
REMARK   82  A    between atoms: _208  and  _209
REMARK   83  A    between atoms: _208  and  _211
REMARK   84  A    between atoms: _211  and  _212
REMARK   85  A    between atoms: _212  and  _213
REMARK   86  A    between atoms: _215  and  _217
REMARK   87  A    between atoms: _217  and  _218
REMARK   88  A    between atoms: _217  and  _220
REMARK   89  A    between atoms: _220  and  _221
REMARK   90  A    between atoms: _226  and  _227
REMARK   91  A    between atoms: _229  and  _231
REMARK   92  A    between atoms: _231  and  _232
REMARK   93  A    between atoms: _231  and  _234
REMARK   94  A    between atoms: _234  and  _235
REMARK   95  A    between atoms: _238  and  _240
REMARK   96  A    between atoms: _240  and  _241
REMARK   97  A    between atoms: _240  and  _243
REMARK   98  A    between atoms: _243  and  _244
REMARK   99  A    between atoms: _250  and  _252
REMARK  100  A    between atoms: _252  and  _253
REMARK  101  A    between atoms: _252  and  _255
REMARK  102  A    between atoms: _255  and  _256
REMARK  103  A    between atoms: _261  and  _262
REMARK  104  A    between atoms: _264  and  _266
REMARK  105  A    between atoms: _266  and  _267
REMARK  106  A    between atoms: _269  and  _271
REMARK  107  A    between atoms: _271  and  _272
REMARK  108  A    between atoms: _274  and  _276
REMARK  109  A    between atoms: _276  and  _277
REMARK  110  A    between atoms: _276  and  _279
REMARK  111  A    between atoms: _279  and  _280
REMARK  112  A    between atoms: _290  and  _292
REMARK  113  A    between atoms: _292  and  _293
REMARK  114  A    between atoms: _292  and  _295
REMARK  115  A    between atoms: _295  and  _296
REMARK  116  A    between atoms: _301  and  _303
REMARK  117  A    between atoms: _303  and  _304
REMARK  118  A    between atoms: _303  and  _306
REMARK  119  A    between atoms: _306  and  _307
REMARK  120  A    between atoms: _307  and  _308
REMARK  121  A    between atoms: _313  and  _315
REMARK  122  A    between atoms: _315  and  _316
REMARK  123  A    between atoms: _315  and  _318
REMARK  124  A    between atoms: _318  and  _319
REMARK  125  A    between atoms: _324  and  _325
REMARK  126  A    between atoms: _327  and  _329
REMARK  127  A    between atoms: _329  and  _330
REMARK  128  A    between atoms: _329  and  _332
REMARK  129  A    between atoms: _332  and  _333
REMARK  130  A    between atoms: _338  and  _339
REMARK  131  A    between atoms: _341  and  _343
REMARK  132  A    between atoms: _343  and  _344
REMARK  133  A    between atoms: _343  and  _346
REMARK  134  A    between atoms: _346  and  _347
REMARK  135  A    between atoms: _347  and  _348
REMARK  136  A    between atoms: _348  and  _349
REMARK  137  A    between atoms: _358  and  _360
REMARK  138  A    between atoms: _360  and  _361
REMARK  139  A    between atoms: _360  and  _363
REMARK  140  A    between atoms: _363  and  _364
REMARK  141  A    between atoms: _364  and  _365
REMARK  142  A    between atoms: _365  and  _366
REMARK  143  A    between atoms: _366  and  _367
REMARK  144  A    between atoms: _371  and  _373
REMARK  145  A    between atoms: _373  and  _374
REMARK  146  A    between atoms: _373  and  _376
REMARK  147  A    between atoms: _376  and  _377
REMARK  148  A    between atoms: _377  and  _378
REMARK  149  A    between atoms: _381  and  _383
REMARK  150  A    between atoms: _383  and  _384
REMARK  151  A    between atoms: _383  and  _386
REMARK  152  A    between atoms: _389  and  _391
REMARK  153  A    between atoms: _391  and  _392
REMARK  154  A    between atoms: _391  and  _394
REMARK  155  A    between atoms: _394  and  _395
REMARK                            x       y       z     vdW  Elec       q    Type
REMARK                         _______ _______ _______ _____ _____    ______ ____
ROOT
ATOM      1  CA  TYR A   4      20.430  -6.584  14.025  0.00  0.00    +0.153 C 
ENDROOT
BRANCH   1   2
ATOM      2  C   TYR A   4      20.017  -5.640  15.128  0.00  0.00    +0.241 C 
ATOM      3  N   GLY A   5      21.008  -5.276  15.971  0.00  0.00    -0.295 N 
ATOM      4  H   GLY A   5      21.987  -5.595  15.823  0.00  0.00    +0.150 HD
ATOM      5  O   TYR A   4      18.855  -5.262  15.302  0.00  0.00    -0.273 OA
BRANCH   3   6
ATOM      6  CA  GLY A   5      20.652  -4.413  17.105  0.00  0.00    +0.176 C 
BRANCH   6   7
ATOM      7  C   GLY A   5      21.820  -4.058  17.976  0.00  0.00    +0.243 C 
ATOM      8  N   GLY A   6      21.507  -3.341  19.052  0.00  0.00    -0.295 N 
ATOM      9  H   GLY A   6      20.510  -3.225  19.325  0.00  0.00    +0.150 HD
ATOM     10  O   GLY A   5      22.935  -4.445  17.682  0.00  0.00    -0.273 OA
BRANCH   8  11
ATOM     11  CA  GLY A   6      22.592  -2.695  19.877  0.00  0.00    +0.176 C 
BRANCH  11  12
ATOM     12  C   GLY A   6      23.235  -3.722  20.796  0.00  0.00    +0.243 C 
ATOM     13  O   GLY A   6      24.192  -3.335  21.493  0.00  0.00    -0.273 OA
ATOM     14  N   TRP A   7      22.833  -5.012  20.795  0.00  0.00    -0.297 N 
ATOM     15  H   TRP A   7      21.995  -5.296  20.249  0.00  0.00    +0.150 HD
BRANCH  14  16
ATOM     16  CA  TRP A   7      23.572  -5.999  21.557  0.00  0.00    +0.153 C 
BRANCH  16  17
ATOM     17  C   TRP A   7      25.023  -6.151  21.041  0.00  0.00    +0.241 C 
ATOM     18  O   TRP A   7      25.888  -6.639  21.786  0.00  0.00    -0.273 OA
ATOM     19  N   ASN A   8      25.315  -5.791  19.804  0.00  0.00    -0.298 N 
ATOM     20  H   ASN A   8      24.542  -5.594  19.137  0.00  0.00    +0.150 HD
BRANCH  19  21
ATOM     21  CA  ASN A   8      26.699  -5.663  19.351  0.00  0.00    +0.146 C 
BRANCH  21  22
ATOM     22  C   ASN A   8      26.883  -4.420  18.487  0.00  0.00    +0.227 C 
ATOM     23  O   ASN A   8      25.974  -3.550  18.479  0.00  0.00    -0.286 OA
ENDBRANCH  21  22
BRANCH  21  24
ATOM     24  CB  ASN A   8      27.118  -6.983  18.662  0.00  0.00    +0.112 C 
BRANCH  24  25
ATOM     25  CG  ASN A   8      26.351  -7.172  17.361  0.00  0.00    +0.222 C 
ATOM     26  ND2 ASN A   8      26.072  -8.406  16.988  0.00  0.00    -0.329 N 
ATOM     27 HD21 ASN A   8      26.404  -9.209  17.559  0.00  0.00    +0.145 HD
ATOM     28 HD22 ASN A   8      25.520  -8.576  16.123  0.00  0.00    +0.145 HD
ATOM     29  OD1 ASN A   8      25.976  -6.196  16.713  0.00  0.00    -0.275 OA
ENDBRANCH  24  25
ENDBRANCH  21  24
ENDBRANCH  19  21
ENDBRANCH  16  17
BRANCH  16  30
ATOM     30  CB  TRP A   7      22.855  -7.341  21.536  0.00  0.00    +0.057 C 
BRANCH  30  31
ATOM     31  CG  TRP A   7      22.421  -7.751  20.121  0.00  0.00    -0.002 A 
ATOM     32  CD2 TRP A   7      21.105  -7.544  19.574  0.00  0.00    +0.013 A 
ATOM     33  CE3 TRP A   7      19.943  -6.977  20.084  0.00  0.00    +0.001 A 
ATOM     34  CZ3 TRP A   7      18.792  -6.982  19.320  0.00  0.00    +0.000 A 
ATOM     35  CH2 TRP A   7      18.774  -7.500  18.006  0.00  0.00    +0.001 A 
ATOM     36  CZ2 TRP A   7      19.867  -8.086  17.444  0.00  0.00    +0.017 A 
ATOM     37  CE2 TRP A   7      21.100  -8.096  18.262  0.00  0.00    +0.056 A 
ATOM     38  NE1 TRP A   7      22.350  -8.588  18.018  0.00  0.00    -0.352 N 
ATOM     39  HE1 TRP A   7      22.672  -9.010  17.124  0.00  0.00    +0.166 HD
ATOM     40  CD1 TRP A   7      23.136  -8.428  19.187  0.00  0.00    +0.068 A 
ENDBRANCH  30  31
ENDBRANCH  16  30
ENDBRANCH  14  16
ENDBRANCH  11  12
ENDBRANCH   8  11
ENDBRANCH   6   7
ENDBRANCH   3   6
ENDBRANCH   1   2
BRANCH   1  42
ATOM     41  C   PHE A   3      19.099  -8.637  13.417  0.00  0.00    +0.241 C 
ATOM     42  N   TYR A   4      19.173  -7.319  13.668  0.00  0.00    -0.297 N 
ATOM     43  H   TYR A   4      18.293  -6.768  13.610  0.00  0.00    +0.150 HD
ATOM     44  O   PHE A   3      20.104  -9.397  13.300  0.00  0.00    -0.273 OA
BRANCH  41  45
ATOM     45  CA  PHE A   3      17.717  -9.170  13.066  0.00  0.00    +0.153 C 
BRANCH  45  48
ATOM     46  C   ASP A   2      16.436  -8.679  15.055  0.00  0.00    +0.241 C 
ATOM     47  O   ASP A   2      17.175  -9.428  15.727  0.00  0.00    -0.273 OA
ATOM     48  N   PHE A   3      16.657  -8.391  13.769  0.00  0.00    -0.297 N 
ATOM     49  H   PHE A   3      16.112  -7.654  13.278  0.00  0.00    +0.150 HD
BRANCH  46  50
ATOM     50  CA  ASP A   2      15.349  -7.899  15.772  0.00  0.00    +0.160 C 
BRANCH  50  52
ATOM     51  C   TYR A   1      13.453  -8.511  14.333  0.00  0.00    +0.239 C 
ATOM     52  N   ASP A   2      14.197  -7.567  14.890  0.00  0.00    -0.297 N 
ATOM     53  H   ASP A   2      13.970  -6.569  14.706  0.00  0.00    +0.150 HD
ATOM     54  O   TYR A   1      13.664  -9.725  14.550  0.00  0.00    -0.274 OA
BRANCH  51  55
ATOM     55  CA  TYR A   1      12.338  -8.064  13.365  0.00  0.00    +0.149 C 
BRANCH  55  56
ATOM     56  N   TYR A   1      11.729  -9.308  12.806  0.00  0.00    -0.238 NA
ATOM     57  H   TYR A   1      11.892 -10.211  13.295  0.00  0.00    +0.142 HD
ENDBRANCH  55  56
BRANCH  55  58
ATOM     58  CB  TYR A   1      11.314  -7.107  14.048  0.00  0.00    +0.053 C 
BRANCH  58  59
ATOM     59  CG  TYR A   1      10.265  -7.811  14.875  0.00  0.00    -0.020 A 
ATOM     60  CD2 TYR A   1      10.555  -8.523  16.036  0.00  0.00    -0.001 A 
ATOM     61  CE2 TYR A   1       9.536  -9.116  16.828  0.00  0.00    +0.036 A 
ATOM     62  CZ  TYR A   1       8.238  -8.990  16.448  0.00  0.00    +0.134 A 
ATOM     63  CE1 TYR A   1       7.913  -8.283  15.314  0.00  0.00    +0.036 A 
ATOM     64  CD1 TYR A   1       8.943  -7.702  14.514  0.00  0.00    -0.001 A 
BRANCH  62  65
ATOM     65  OH  TYR A   1       7.208  -9.516  17.232  0.00  0.00    -0.506 OA
ATOM     66  HH  TYR A   1       7.596  -9.994  18.007  0.00  0.00    +0.292 HD
ENDBRANCH  62  65
ENDBRANCH  58  59
ENDBRANCH  55  58
ENDBRANCH  51  55
ENDBRANCH  50  52
BRANCH  50  67
ATOM     67  CB  ASP A   2      14.930  -8.627  17.067  0.00  0.00    +0.143 C 
BRANCH  67  68
ATOM     68  CG  ASP A   2      13.950  -7.845  17.864  0.00  0.00    +0.367 C 
ATOM     69  OD2 ASP A   2      13.100  -8.509  18.603  0.00  0.00    -0.246 OA
ATOM     70  OD1 ASP A   2      13.953  -6.559  17.825  0.00  0.00    -0.246 OA
ENDBRANCH  67  68
ENDBRANCH  50  67
ENDBRANCH  46  50
ENDBRANCH  45  48
BRANCH  45  71
ATOM     71  CB  PHE A   3      17.520  -9.032  11.586  0.00  0.00    +0.055 C 
BRANCH  71  72
ATOM     72  CG  PHE A   3      16.203  -9.570  11.057  0.00  0.00    -0.020 A 
ATOM     73  CD2 PHE A   3      15.599 -10.679  11.686  0.00  0.00    -0.004 A 
ATOM     74  CE2 PHE A   3      14.395 -11.195  11.161  0.00  0.00    -0.000 A 
ATOM     75  CZ  PHE A   3      13.790 -10.615   9.988  0.00  0.00    -0.000 A 
ATOM     76  CE1 PHE A   3      14.417  -9.494   9.353  0.00  0.00    -0.000 A 
ATOM     77  CD1 PHE A   3      15.612  -9.008   9.877  0.00  0.00    -0.004 A 
ENDBRANCH  71  72
ENDBRANCH  45  71
ENDBRANCH  41  45
ENDBRANCH   1  42
BRANCH   1  78
ATOM     78  CB  TYR A   4      20.958  -5.776  12.824  0.00  0.00    +0.055 C 
BRANCH  78  79
ATOM     79  CG  TYR A   4      21.591  -6.628  11.768  0.00  0.00    -0.020 A 
ATOM     80  CD2 TYR A   4      22.999  -6.770  11.767  0.00  0.00    -0.001 A 
ATOM     81  CE2 TYR A   4      23.544  -7.572  10.822  0.00  0.00    +0.036 A 
ATOM     82  CZ  TYR A   4      22.791  -8.241   9.862  0.00  0.00    +0.134 A 
ATOM     83  CE1 TYR A   4      21.468  -8.125   9.865  0.00  0.00    +0.036 A 
ATOM     84  CD1 TYR A   4      20.838  -7.323  10.810  0.00  0.00    -0.001 A 
BRANCH  82  85
ATOM     85  OH  TYR A   4      23.427  -9.110   8.902  0.00  0.00    -0.506 OA
ATOM     86  HH  TYR A   4      24.078  -8.589   8.368  0.00  0.00    +0.292 HD
ENDBRANCH  82  85
ENDBRANCH  78  79
ENDBRANCH   1  78
TORSDOF 30
REMARK  Name = ../refined-set-2016/3arq/3arq_pocket.pdb
REMARK  155 active torsions:
REMARK  status: ('A' for Active; 'I' for Inactive)
REMARK    1  A    between atoms: _1  and  _3
REMARK    2  A    between atoms: _3  and  _4
REMARK    3  A    between atoms: _3  and  _6
REMARK    4  A    between atoms: _6  and  _7
REMARK    5  A    between atoms: _17  and  _19
REMARK    6  A    between atoms: _19  and  _20
REMARK    7  A    between atoms: _19  and  _22
REMARK    8  A    between atoms: _22  and  _23
REMARK    9  A    between atoms: _29  and  _31
REMARK   10  A    between atoms: _31  and  _32
REMARK   11  A    between atoms: _31  and  _34
REMARK   12  A    between atoms: _34  and  _35
REMARK   13  A    between atoms: _37  and  _39
REMARK   14  A    between atoms: _39  and  _40
REMARK   15  A    between atoms: _39  and  _42
REMARK   16  A    between atoms: _45  and  _47
REMARK   17  A    between atoms: _47  and  _48
REMARK   18  A    between atoms: _50  and  _52
REMARK   19  A    between atoms: _52  and  _53
REMARK   20  A    between atoms: _52  and  _55
REMARK   21  A    between atoms: _55  and  _56
REMARK   22  A    between atoms: _66  and  _68
REMARK   23  A    between atoms: _68  and  _69
REMARK   24  A    between atoms: _68  and  _71
REMARK   25  A    between atoms: _71  and  _72
REMARK   26  A    between atoms: _75  and  _77
REMARK   27  A    between atoms: _77  and  _78
REMARK   28  A    between atoms: _77  and  _80
REMARK   29  A    between atoms: _80  and  _81
REMARK   30  A    between atoms: _86  and  _87
REMARK   31  A    between atoms: _89  and  _91
REMARK   32  A    between atoms: _91  and  _92
REMARK   33  A    between atoms: _91  and  _94
REMARK   34  A    between atoms: _94  and  _95
REMARK   35  A    between atoms: _95  and  _96
REMARK   36  A    between atoms: _99  and  _101
REMARK   37  A    between atoms: _101  and  _102
REMARK   38  A    between atoms: _101  and  _104
REMARK   39  A    between atoms: _104  and  _105
REMARK   40  A    between atoms: _111  and  _113
REMARK   41  A    between atoms: _113  and  _114
REMARK   42  A    between atoms: _116  and  _118
REMARK   43  A    between atoms: _118  and  _119
REMARK   44  A    between atoms: _121  and  _123
REMARK   45  A    between atoms: _123  and  _124
REMARK   46  A    between atoms: _126  and  _128
REMARK   47  A    between atoms: _128  and  _129
REMARK   48  A    between atoms: _132  and  _134
REMARK   49  A    between atoms: _134  and  _135
REMARK   50  A    between atoms: _138  and  _140
REMARK   51  A    between atoms: _140  and  _141
REMARK   52  A    between atoms: _144  and  _146
REMARK   53  A    between atoms: _146  and  _147
REMARK   54  A    between atoms: _146  and  _149
REMARK   55  A    between atoms: _149  and  _150
REMARK   56  A    between atoms: _153  and  _155
REMARK   57  A    between atoms: _155  and  _156
REMARK   58  A    between atoms: _155  and  _158
REMARK   59  A    between atoms: _158  and  _159
REMARK   60  A    between atoms: _159  and  _160
REMARK   61  A    between atoms: _160  and  _161
REMARK   62  A    between atoms: _161  and  _162
REMARK   63  A    between atoms: _166  and  _168
REMARK   64  A    between atoms: _168  and  _169
REMARK   65  A    between atoms: _171  and  _173
REMARK   66  A    between atoms: _173  and  _174
REMARK   67  A    between atoms: _173  and  _176
REMARK   68  A    between atoms: _179  and  _181
REMARK   69  A    between atoms: _181  and  _182
REMARK   70  A    between atoms: _184  and  _186
REMARK   71  A    between atoms: _186  and  _187
REMARK   72  A    between atoms: _186  and  _189
REMARK   73  A    between atoms: _189  and  _190
REMARK   74  A    between atoms: _193  and  _195
REMARK   75  A    between atoms: _195  and  _196
REMARK   76  A    between atoms: _195  and  _198
REMARK   77  A    between atoms: _198  and  _199
REMARK   78  A    between atoms: _199  and  _200
REMARK   79  A    between atoms: _200  and  _201
REMARK   80  A    between atoms: _201  and  _202
REMARK   81  A    between atoms: _206  and  _208
REMARK   82  A    between atoms: _208  and  _209
REMARK   83  A    between atoms: _208  and  _211
REMARK   84  A    between atoms: _211  and  _212
REMARK   85  A    between atoms: _212  and  _213
REMARK   86  A    between atoms: _215  and  _217
REMARK   87  A    between atoms: _217  and  _218
REMARK   88  A    between atoms: _217  and  _220
REMARK   89  A    between atoms: _220  and  _221
REMARK   90  A    between atoms: _226  and  _227
REMARK   91  A    between atoms: _229  and  _231
REMARK   92  A    between atoms: _231  and  _232
REMARK   93  A    between atoms: _231  and  _234
REMARK   94  A    between atoms: _234  and  _235
REMARK   95  A    between atoms: _238  and  _240
REMARK   96  A    between atoms: _240  and  _241
REMARK   97  A    between atoms: _240  and  _243
REMARK   98  A    between atoms: _243  and  _244
REMARK   99  A    between atoms: _250  and  _252
REMARK  100  A    between atoms: _252  and  _253
REMARK  101  A    between atoms: _252  and  _255
REMARK  102  A    between atoms: _255  and  _256
REMARK  103  A    between atoms: _261  and  _262
REMARK  104  A    between atoms: _264  and  _266
REMARK  105  A    between atoms: _266  and  _267
REMARK  106  A    between atoms: _269  and  _271
REMARK  107  A    between atoms: _271  and  _272
REMARK  108  A    between atoms: _274  and  _276
REMARK  109  A    between atoms: _276  and  _277
REMARK  110  A    between atoms: _276  and  _279
REMARK  111  A    between atoms: _279  and  _280
REMARK  112  A    between atoms: _290  and  _292
REMARK  113  A    between atoms: _292  and  _293
REMARK  114  A    between atoms: _292  and  _295
REMARK  115  A    between atoms: _295  and  _296
REMARK  116  A    between atoms: _301  and  _303
REMARK  117  A    between atoms: _303  and  _304
REMARK  118  A    between atoms: _303  and  _306
REMARK  119  A    between atoms: _306  and  _307
REMARK  120  A    between atoms: _307  and  _308
REMARK  121  A    between atoms: _313  and  _315
REMARK  122  A    between atoms: _315  and  _316
REMARK  123  A    between atoms: _315  and  _318
REMARK  124  A    between atoms: _318  and  _319
REMARK  125  A    between atoms: _324  and  _325
REMARK  126  A    between atoms: _327  and  _329
REMARK  127  A    between atoms: _329  and  _330
REMARK  128  A    between atoms: _329  and  _332
REMARK  129  A    between atoms: _332  and  _333
REMARK  130  A    between atoms: _338  and  _339
REMARK  131  A    between atoms: _341  and  _343
REMARK  132  A    between atoms: _343  and  _344
REMARK  133  A    between atoms: _343  and  _346
REMARK  134  A    between atoms: _346  and  _347
REMARK  135  A    between atoms: _347  and  _348
REMARK  136  A    between atoms: _348  and  _349
REMARK  137  A    between atoms: _358  and  _360
REMARK  138  A    between atoms: _360  and  _361
REMARK  139  A    between atoms: _360  and  _363
REMARK  140  A    between atoms: _363  and  _364
REMARK  141  A    between atoms: _364  and  _365
REMARK  142  A    between atoms: _365  and  _366
REMARK  143  A    between atoms: _366  and  _367
REMARK  144  A    between atoms: _371  and  _373
REMARK  145  A    between atoms: _373  and  _374
REMARK  146  A    between atoms: _373  and  _376
REMARK  147  A    between atoms: _376  and  _377
REMARK  148  A    between atoms: _377  and  _378
REMARK  149  A    between atoms: _381  and  _383
REMARK  150  A    between atoms: _383  and  _384
REMARK  151  A    between atoms: _383  and  _386
REMARK  152  A    between atoms: _389  and  _391
REMARK  153  A    between atoms: _391  and  _392
REMARK  154  A    between atoms: _391  and  _394
REMARK  155  A    between atoms: _394  and  _395
REMARK                            x       y       z     vdW  Elec       q    Type
REMARK                         _______ _______ _______ _____ _____    ______ ____
ROOT
ATOM      1  CB  GLN A   1      16.388  -4.433  13.221  0.00  0.00    +0.035 C 
ENDROOT
BRANCH   1   2
ATOM      2  CA  GLN A   1      16.622  -5.147  11.848  0.00  0.00    +0.134 C 
BRANCH   2   3
ATOM      3  N   GLN A   1      17.235  -4.231  10.861  0.00  0.00    -0.239 NA
ATOM      4  H   GLN A   1      17.162  -3.198  10.959  0.00  0.00    +0.142 HD
ENDBRANCH   2   3
BRANCH   2   5
ATOM      5  C   GLN A   1      15.353  -5.796  11.432  0.00  0.00    +0.224 C 
ATOM      6  O   GLN A   1      14.918  -6.781  12.068  0.00  0.00    -0.287 OA
ENDBRANCH   2   5
ENDBRANCH   1   2
BRANCH   1   7
ATOM      7  CG  GLN A   1      15.266  -3.401  13.202  0.00  0.00    +0.087 C 
BRANCH   7   8
ATOM      8  CD  GLN A   1      14.279  -3.584  14.326  0.00  0.00    +0.219 C 
ATOM      9  OE1 GLN A   1      14.061  -4.670  14.894  0.00  0.00    -0.275 OA
ATOM     10  NE2 GLN A   1      13.611  -2.507  14.714  0.00  0.00    -0.329 N 
ATOM     11 HE21 GLN A   1      12.915  -2.576  15.484  0.00  0.00    +0.145 HD
ATOM     12 HE22 GLN A   1      13.783  -1.593  14.249  0.00  0.00    +0.145 HD
ENDBRANCH   7   8
ENDBRANCH   1   7
TORSDOF 5
REMARK  Name = ../refined-set-2016/3arq/3arq_pocket.pdb
REMARK  155 active torsions:
REMARK  status: ('A' for Active; 'I' for Inactive)
REMARK    1  A    between atoms: _1  and  _3
REMARK    2  A    between atoms: _3  and  _4
REMARK    3  A    between atoms: _3  and  _6
REMARK    4  A    between atoms: _6  and  _7
REMARK    5  A    between atoms: _17  and  _19
REMARK    6  A    between atoms: _19  and  _20
REMARK    7  A    between atoms: _19  and  _22
REMARK    8  A    between atoms: _22  and  _23
REMARK    9  A    between atoms: _29  and  _31
REMARK   10  A    between atoms: _31  and  _32
REMARK   11  A    between atoms: _31  and  _34
REMARK   12  A    between atoms: _34  and  _35
REMARK   13  A    between atoms: _37  and  _39
REMARK   14  A    between atoms: _39  and  _40
REMARK   15  A    between atoms: _39  and  _42
REMARK   16  A    between atoms: _45  and  _47
REMARK   17  A    between atoms: _47  and  _48
REMARK   18  A    between atoms: _50  and  _52
REMARK   19  A    between atoms: _52  and  _53
REMARK   20  A    between atoms: _52  and  _55
REMARK   21  A    between atoms: _55  and  _56
REMARK   22  A    between atoms: _66  and  _68
REMARK   23  A    between atoms: _68  and  _69
REMARK   24  A    between atoms: _68  and  _71
REMARK   25  A    between atoms: _71  and  _72
REMARK   26  A    between atoms: _75  and  _77
REMARK   27  A    between atoms: _77  and  _78
REMARK   28  A    between atoms: _77  and  _80
REMARK   29  A    between atoms: _80  and  _81
REMARK   30  A    between atoms: _86  and  _87
REMARK   31  A    between atoms: _89  and  _91
REMARK   32  A    between atoms: _91  and  _92
REMARK   33  A    between atoms: _91  and  _94
REMARK   34  A    between atoms: _94  and  _95
REMARK   35  A    between atoms: _95  and  _96
REMARK   36  A    between atoms: _99  and  _101
REMARK   37  A    between atoms: _101  and  _102
REMARK   38  A    between atoms: _101  and  _104
REMARK   39  A    between atoms: _104  and  _105
REMARK   40  A    between atoms: _111  and  _113
REMARK   41  A    between atoms: _113  and  _114
REMARK   42  A    between atoms: _116  and  _118
REMARK   43  A    between atoms: _118  and  _119
REMARK   44  A    between atoms: _121  and  _123
REMARK   45  A    between atoms: _123  and  _124
REMARK   46  A    between atoms: _126  and  _128
REMARK   47  A    between atoms: _128  and  _129
REMARK   48  A    between atoms: _132  and  _134
REMARK   49  A    between atoms: _134  and  _135
REMARK   50  A    between atoms: _138  and  _140
REMARK   51  A    between atoms: _140  and  _141
REMARK   52  A    between atoms: _144  and  _146
REMARK   53  A    between atoms: _146  and  _147
REMARK   54  A    between atoms: _146  and  _149
REMARK   55  A    between atoms: _149  and  _150
REMARK   56  A    between atoms: _153  and  _155
REMARK   57  A    between atoms: _155  and  _156
REMARK   58  A    between atoms: _155  and  _158
REMARK   59  A    between atoms: _158  and  _159
REMARK   60  A    between atoms: _159  and  _160
REMARK   61  A    between atoms: _160  and  _161
REMARK   62  A    between atoms: _161  and  _162
REMARK   63  A    between atoms: _166  and  _168
REMARK   64  A    between atoms: _168  and  _169
REMARK   65  A    between atoms: _171  and  _173
REMARK   66  A    between atoms: _173  and  _174
REMARK   67  A    between atoms: _173  and  _176
REMARK   68  A    between atoms: _179  and  _181
REMARK   69  A    between atoms: _181  and  _182
REMARK   70  A    between atoms: _184  and  _186
REMARK   71  A    between atoms: _186  and  _187
REMARK   72  A    between atoms: _186  and  _189
REMARK   73  A    between atoms: _189  and  _190
REMARK   74  A    between atoms: _193  and  _195
REMARK   75  A    between atoms: _195  and  _196
REMARK   76  A    between atoms: _195  and  _198
REMARK   77  A    between atoms: _198  and  _199
REMARK   78  A    between atoms: _199  and  _200
REMARK   79  A    between atoms: _200  and  _201
REMARK   80  A    between atoms: _201  and  _202
REMARK   81  A    between atoms: _206  and  _208
REMARK   82  A    between atoms: _208  and  _209
REMARK   83  A    between atoms: _208  and  _211
REMARK   84  A    between atoms: _211  and  _212
REMARK   85  A    between atoms: _212  and  _213
REMARK   86  A    between atoms: _215  and  _217
REMARK   87  A    between atoms: _217  and  _218
REMARK   88  A    between atoms: _217  and  _220
REMARK   89  A    between atoms: _220  and  _221
REMARK   90  A    between atoms: _226  and  _227
REMARK   91  A    between atoms: _229  and  _231
REMARK   92  A    between atoms: _231  and  _232
REMARK   93  A    between atoms: _231  and  _234
REMARK   94  A    between atoms: _234  and  _235
REMARK   95  A    between atoms: _238  and  _240
REMARK   96  A    between atoms: _240  and  _241
REMARK   97  A    between atoms: _240  and  _243
REMARK   98  A    between atoms: _243  and  _244
REMARK   99  A    between atoms: _250  and  _252
REMARK  100  A    between atoms: _252  and  _253
REMARK  101  A    between atoms: _252  and  _255
REMARK  102  A    between atoms: _255  and  _256
REMARK  103  A    between atoms: _261  and  _262
REMARK  104  A    between atoms: _264  and  _266
REMARK  105  A    between atoms: _266  and  _267
REMARK  106  A    between atoms: _269  and  _271
REMARK  107  A    between atoms: _271  and  _272
REMARK  108  A    between atoms: _274  and  _276
REMARK  109  A    between atoms: _276  and  _277
REMARK  110  A    between atoms: _276  and  _279
REMARK  111  A    between atoms: _279  and  _280
REMARK  112  A    between atoms: _290  and  _292
REMARK  113  A    between atoms: _292  and  _293
REMARK  114  A    between atoms: _292  and  _295
REMARK  115  A    between atoms: _295  and  _296
REMARK  116  A    between atoms: _301  and  _303
REMARK  117  A    between atoms: _303  and  _304
REMARK  118  A    between atoms: _303  and  _306
REMARK  119  A    between atoms: _306  and  _307
REMARK  120  A    between atoms: _307  and  _308
REMARK  121  A    between atoms: _313  and  _315
REMARK  122  A    between atoms: _315  and  _316
REMARK  123  A    between atoms: _315  and  _318
REMARK  124  A    between atoms: _318  and  _319
REMARK  125  A    between atoms: _324  and  _325
REMARK  126  A    between atoms: _327  and  _329
REMARK  127  A    between atoms: _329  and  _330
REMARK  128  A    between atoms: _329  and  _332
REMARK  129  A    between atoms: _332  and  _333
REMARK  130  A    between atoms: _338  and  _339
REMARK  131  A    between atoms: _341  and  _343
REMARK  132  A    between atoms: _343  and  _344
REMARK  133  A    between atoms: _343  and  _346
REMARK  134  A    between atoms: _346  and  _347
REMARK  135  A    between atoms: _347  and  _348
REMARK  136  A    between atoms: _348  and  _349
REMARK  137  A    between atoms: _358  and  _360
REMARK  138  A    between atoms: _360  and  _361
REMARK  139  A    between atoms: _360  and  _363
REMARK  140  A    between atoms: _363  and  _364
REMARK  141  A    between atoms: _364  and  _365
REMARK  142  A    between atoms: _365  and  _366
REMARK  143  A    between atoms: _366  and  _367
REMARK  144  A    between atoms: _371  and  _373
REMARK  145  A    between atoms: _373  and  _374
REMARK  146  A    between atoms: _373  and  _376
REMARK  147  A    between atoms: _376  and  _377
REMARK  148  A    between atoms: _377  and  _378
REMARK  149  A    between atoms: _381  and  _383
REMARK  150  A    between atoms: _383  and  _384
REMARK  151  A    between atoms: _383  and  _386
REMARK  152  A    between atoms: _389  and  _391
REMARK  153  A    between atoms: _391  and  _392
REMARK  154  A    between atoms: _391  and  _394
REMARK  155  A    between atoms: _394  and  _395
REMARK                            x       y       z     vdW  Elec       q    Type
REMARK                         _______ _______ _______ _____ _____    ______ ____
ROOT
ATOM      1  CG  TYR A   1      19.204 -13.327  11.434  0.00  0.00    -0.020 A 
ATOM      2  CD2 TYR A   1      19.037 -13.023  12.760  0.00  0.00    -0.001 A 
ATOM      3  CE2 TYR A   1      19.285 -13.959  13.765  0.00  0.00    +0.036 A 
ATOM      4  CZ  TYR A   1      19.719 -15.229  13.440  0.00  0.00    +0.134 A 
ATOM      5  CE1 TYR A   1      19.851 -15.584  12.086  0.00  0.00    +0.036 A 
ATOM      6  CD1 TYR A   1      19.614 -14.604  11.100  0.00  0.00    -0.001 A 
ENDROOT
BRANCH   4   7
ATOM      7  OH  TYR A   1      19.958 -16.199  14.423  0.00  0.00    -0.506 OA
ATOM      8  HH  TYR A   1      20.261 -17.037  13.991  0.00  0.00    +0.292 HD
ENDBRANCH   4   7
BRANCH   1   9
ATOM      9  CB  TYR A   1      18.927 -12.265  10.384  0.00  0.00    +0.051 C 
BRANCH   9  10
ATOM     10  CA  TYR A   1      18.653 -12.781   8.953  0.00  0.00    +0.137 C 
BRANCH  10  11
ATOM     11  N   TYR A   1      19.916 -13.096   8.239  0.00  0.00    -0.239 NA
ATOM     12  H   TYR A   1      20.817 -12.694   8.569  0.00  0.00    +0.142 HD
ENDBRANCH  10  11
BRANCH  10  13
ATOM     13  C   TYR A   1      17.851 -11.739   8.186  0.00  0.00    +0.224 C 
ATOM     14  O   TYR A   1      18.131 -10.539   8.307  0.00  0.00    -0.287 OA
ENDBRANCH  10  13
ENDBRANCH   9  10
ENDBRANCH   1   9
TORSDOF 5
REMARK  Name = ../refined-set-2016/3arq/3arq_pocket.pdb
REMARK  155 active torsions:
REMARK  status: ('A' for Active; 'I' for Inactive)
REMARK    1  A    between atoms: _1  and  _3
REMARK    2  A    between atoms: _3  and  _4
REMARK    3  A    between atoms: _3  and  _6
REMARK    4  A    between atoms: _6  and  _7
REMARK    5  A    between atoms: _17  and  _19
REMARK    6  A    between atoms: _19  and  _20
REMARK    7  A    between atoms: _19  and  _22
REMARK    8  A    between atoms: _22  and  _23
REMARK    9  A    between atoms: _29  and  _31
REMARK   10  A    between atoms: _31  and  _32
REMARK   11  A    between atoms: _31  and  _34
REMARK   12  A    between atoms: _34  and  _35
REMARK   13  A    between atoms: _37  and  _39
REMARK   14  A    between atoms: _39  and  _40
REMARK   15  A    between atoms: _39  and  _42
REMARK   16  A    between atoms: _45  and  _47
REMARK   17  A    between atoms: _47  and  _48
REMARK   18  A    between atoms: _50  and  _52
REMARK   19  A    between atoms: _52  and  _53
REMARK   20  A    between atoms: _52  and  _55
REMARK   21  A    between atoms: _55  and  _56
REMARK   22  A    between atoms: _66  and  _68
REMARK   23  A    between atoms: _68  and  _69
REMARK   24  A    between atoms: _68  and  _71
REMARK   25  A    between atoms: _71  and  _72
REMARK   26  A    between atoms: _75  and  _77
REMARK   27  A    between atoms: _77  and  _78
REMARK   28  A    between atoms: _77  and  _80
REMARK   29  A    between atoms: _80  and  _81
REMARK   30  A    between atoms: _86  and  _87
REMARK   31  A    between atoms: _89  and  _91
REMARK   32  A    between atoms: _91  and  _92
REMARK   33  A    between atoms: _91  and  _94
REMARK   34  A    between atoms: _94  and  _95
REMARK   35  A    between atoms: _95  and  _96
REMARK   36  A    between atoms: _99  and  _101
REMARK   37  A    between atoms: _101  and  _102
REMARK   38  A    between atoms: _101  and  _104
REMARK   39  A    between atoms: _104  and  _105
REMARK   40  A    between atoms: _111  and  _113
REMARK   41  A    between atoms: _113  and  _114
REMARK   42  A    between atoms: _116  and  _118
REMARK   43  A    between atoms: _118  and  _119
REMARK   44  A    between atoms: _121  and  _123
REMARK   45  A    between atoms: _123  and  _124
REMARK   46  A    between atoms: _126  and  _128
REMARK   47  A    between atoms: _128  and  _129
REMARK   48  A    between atoms: _132  and  _134
REMARK   49  A    between atoms: _134  and  _135
REMARK   50  A    between atoms: _138  and  _140
REMARK   51  A    between atoms: _140  and  _141
REMARK   52  A    between atoms: _144  and  _146
REMARK   53  A    between atoms: _146  and  _147
REMARK   54  A    between atoms: _146  and  _149
REMARK   55  A    between atoms: _149  and  _150
REMARK   56  A    between atoms: _153  and  _155
REMARK   57  A    between atoms: _155  and  _156
REMARK   58  A    between atoms: _155  and  _158
REMARK   59  A    between atoms: _158  and  _159
REMARK   60  A    between atoms: _159  and  _160
REMARK   61  A    between atoms: _160  and  _161
REMARK   62  A    between atoms: _161  and  _162
REMARK   63  A    between atoms: _166  and  _168
REMARK   64  A    between atoms: _168  and  _169
REMARK   65  A    between atoms: _171  and  _173
REMARK   66  A    between atoms: _173  and  _174
REMARK   67  A    between atoms: _173  and  _176
REMARK   68  A    between atoms: _179  and  _181
REMARK   69  A    between atoms: _181  and  _182
REMARK   70  A    between atoms: _184  and  _186
REMARK   71  A    between atoms: _186  and  _187
REMARK   72  A    between atoms: _186  and  _189
REMARK   73  A    between atoms: _189  and  _190
REMARK   74  A    between atoms: _193  and  _195
REMARK   75  A    between atoms: _195  and  _196
REMARK   76  A    between atoms: _195  and  _198
REMARK   77  A    between atoms: _198  and  _199
REMARK   78  A    between atoms: _199  and  _200
REMARK   79  A    between atoms: _200  and  _201
REMARK   80  A    between atoms: _201  and  _202
REMARK   81  A    between atoms: _206  and  _208
REMARK   82  A    between atoms: _208  and  _209
REMARK   83  A    between atoms: _208  and  _211
REMARK   84  A    between atoms: _211  and  _212
REMARK   85  A    between atoms: _212  and  _213
REMARK   86  A    between atoms: _215  and  _217
REMARK   87  A    between atoms: _217  and  _218
REMARK   88  A    between atoms: _217  and  _220
REMARK   89  A    between atoms: _220  and  _221
REMARK   90  A    between atoms: _226  and  _227
REMARK   91  A    between atoms: _229  and  _231
REMARK   92  A    between atoms: _231  and  _232
REMARK   93  A    between atoms: _231  and  _234
REMARK   94  A    between atoms: _234  and  _235
REMARK   95  A    between atoms: _238  and  _240
REMARK   96  A    between atoms: _240  and  _241
REMARK   97  A    between atoms: _240  and  _243
REMARK   98  A    between atoms: _243  and  _244
REMARK   99  A    between atoms: _250  and  _252
REMARK  100  A    between atoms: _252  and  _253
REMARK  101  A    between atoms: _252  and  _255
REMARK  102  A    between atoms: _255  and  _256
REMARK  103  A    between atoms: _261  and  _262
REMARK  104  A    between atoms: _264  and  _266
REMARK  105  A    between atoms: _266  and  _267
REMARK  106  A    between atoms: _269  and  _271
REMARK  107  A    between atoms: _271  and  _272
REMARK  108  A    between atoms: _274  and  _276
REMARK  109  A    between atoms: _276  and  _277
REMARK  110  A    between atoms: _276  and  _279
REMARK  111  A    between atoms: _279  and  _280
REMARK  112  A    between atoms: _290  and  _292
REMARK  113  A    between atoms: _292  and  _293
REMARK  114  A    between atoms: _292  and  _295
REMARK  115  A    between atoms: _295  and  _296
REMARK  116  A    between atoms: _301  and  _303
REMARK  117  A    between atoms: _303  and  _304
REMARK  118  A    between atoms: _303  and  _306
REMARK  119  A    between atoms: _306  and  _307
REMARK  120  A    between atoms: _307  and  _308
REMARK  121  A    between atoms: _313  and  _315
REMARK  122  A    between atoms: _315  and  _316
REMARK  123  A    between atoms: _315  and  _318
REMARK  124  A    between atoms: _318  and  _319
REMARK  125  A    between atoms: _324  and  _325
REMARK  126  A    between atoms: _327  and  _329
REMARK  127  A    between atoms: _329  and  _330
REMARK  128  A    between atoms: _329  and  _332
REMARK  129  A    between atoms: _332  and  _333
REMARK  130  A    between atoms: _338  and  _339
REMARK  131  A    between atoms: _341  and  _343
REMARK  132  A    between atoms: _343  and  _344
REMARK  133  A    between atoms: _343  and  _346
REMARK  134  A    between atoms: _346  and  _347
REMARK  135  A    between atoms: _347  and  _348
REMARK  136  A    between atoms: _348  and  _349
REMARK  137  A    between atoms: _358  and  _360
REMARK  138  A    between atoms: _360  and  _361
REMARK  139  A    between atoms: _360  and  _363
REMARK  140  A    between atoms: _363  and  _364
REMARK  141  A    between atoms: _364  and  _365
REMARK  142  A    between atoms: _365  and  _366
REMARK  143  A    between atoms: _366  and  _367
REMARK  144  A    between atoms: _371  and  _373
REMARK  145  A    between atoms: _373  and  _374
REMARK  146  A    between atoms: _373  and  _376
REMARK  147  A    between atoms: _376  and  _377
REMARK  148  A    between atoms: _377  and  _378
REMARK  149  A    between atoms: _381  and  _383
REMARK  150  A    between atoms: _383  and  _384
REMARK  151  A    between atoms: _383  and  _386
REMARK  152  A    between atoms: _389  and  _391
REMARK  153  A    between atoms: _391  and  _392
REMARK  154  A    between atoms: _391  and  _394
REMARK  155  A    between atoms: _394  and  _395
REMARK                            x       y       z     vdW  Elec       q    Type
REMARK                         _______ _______ _______ _____ _____    ______ ____
ROOT
ATOM      1  CG  TYR A   1      10.905  -1.535  18.101  0.00  0.00    -0.020 A 
ATOM      2  CD2 TYR A   1      12.209  -2.023  18.095  0.00  0.00    -0.001 A 
ATOM      3  CE2 TYR A   1      12.457  -3.394  17.824  0.00  0.00    +0.036 A 
ATOM      4  CZ  TYR A   1      11.326  -4.178  17.566  0.00  0.00    +0.134 A 
ATOM      5  CE1 TYR A   1      10.077  -3.728  17.546  0.00  0.00    +0.036 A 
ATOM      6  CD1 TYR A   1       9.841  -2.368  17.827  0.00  0.00    -0.001 A 
ENDROOT
BRANCH   4   7
ATOM      7  OH  TYR A   1      11.541  -5.540  17.278  0.00  0.00    -0.506 OA
ATOM      8  HH  TYR A   1      11.994  -5.971  18.046  0.00  0.00    +0.292 HD
ENDBRANCH   4   7
BRANCH   1   9
ATOM      9  CB  TYR A   1      10.604  -0.048  18.355  0.00  0.00    +0.051 C 
BRANCH   9  10
ATOM     10  CA  TYR A   1      10.368   0.744  17.004  0.00  0.00    +0.137 C 
BRANCH  10  11
ATOM     11  N   TYR A   1       9.217   0.212  16.298  0.00  0.00    -0.239 NA
ATOM     12  H   TYR A   1       9.392  -0.497  15.557  0.00  0.00    +0.142 HD
ENDBRANCH  10  11
BRANCH  10  13
ATOM     13  C   TYR A   1      11.588   0.585  16.142  0.00  0.00    +0.224 C 
ATOM     14  O   TYR A   1      11.636  -0.227  15.210  0.00  0.00    -0.287 OA
ENDBRANCH  10  13
ENDBRANCH   9  10
ENDBRANCH   1   9
TORSDOF 5
REMARK  Name = ../refined-set-2016/3arq/3arq_pocket.pdb
REMARK  155 active torsions:
REMARK  status: ('A' for Active; 'I' for Inactive)
REMARK    1  A    between atoms: _1  and  _3
REMARK    2  A    between atoms: _3  and  _4
REMARK    3  A    between atoms: _3  and  _6
REMARK    4  A    between atoms: _6  and  _7
REMARK    5  A    between atoms: _17  and  _19
REMARK    6  A    between atoms: _19  and  _20
REMARK    7  A    between atoms: _19  and  _22
REMARK    8  A    between atoms: _22  and  _23
REMARK    9  A    between atoms: _29  and  _31
REMARK   10  A    between atoms: _31  and  _32
REMARK   11  A    between atoms: _31  and  _34
REMARK   12  A    between atoms: _34  and  _35
REMARK   13  A    between atoms: _37  and  _39
REMARK   14  A    between atoms: _39  and  _40
REMARK   15  A    between atoms: _39  and  _42
REMARK   16  A    between atoms: _45  and  _47
REMARK   17  A    between atoms: _47  and  _48
REMARK   18  A    between atoms: _50  and  _52
REMARK   19  A    between atoms: _52  and  _53
REMARK   20  A    between atoms: _52  and  _55
REMARK   21  A    between atoms: _55  and  _56
REMARK   22  A    between atoms: _66  and  _68
REMARK   23  A    between atoms: _68  and  _69
REMARK   24  A    between atoms: _68  and  _71
REMARK   25  A    between atoms: _71  and  _72
REMARK   26  A    between atoms: _75  and  _77
REMARK   27  A    between atoms: _77  and  _78
REMARK   28  A    between atoms: _77  and  _80
REMARK   29  A    between atoms: _80  and  _81
REMARK   30  A    between atoms: _86  and  _87
REMARK   31  A    between atoms: _89  and  _91
REMARK   32  A    between atoms: _91  and  _92
REMARK   33  A    between atoms: _91  and  _94
REMARK   34  A    between atoms: _94  and  _95
REMARK   35  A    between atoms: _95  and  _96
REMARK   36  A    between atoms: _99  and  _101
REMARK   37  A    between atoms: _101  and  _102
REMARK   38  A    between atoms: _101  and  _104
REMARK   39  A    between atoms: _104  and  _105
REMARK   40  A    between atoms: _111  and  _113
REMARK   41  A    between atoms: _113  and  _114
REMARK   42  A    between atoms: _116  and  _118
REMARK   43  A    between atoms: _118  and  _119
REMARK   44  A    between atoms: _121  and  _123
REMARK   45  A    between atoms: _123  and  _124
REMARK   46  A    between atoms: _126  and  _128
REMARK   47  A    between atoms: _128  and  _129
REMARK   48  A    between atoms: _132  and  _134
REMARK   49  A    between atoms: _134  and  _135
REMARK   50  A    between atoms: _138  and  _140
REMARK   51  A    between atoms: _140  and  _141
REMARK   52  A    between atoms: _144  and  _146
REMARK   53  A    between atoms: _146  and  _147
REMARK   54  A    between atoms: _146  and  _149
REMARK   55  A    between atoms: _149  and  _150
REMARK   56  A    between atoms: _153  and  _155
REMARK   57  A    between atoms: _155  and  _156
REMARK   58  A    between atoms: _155  and  _158
REMARK   59  A    between atoms: _158  and  _159
REMARK   60  A    between atoms: _159  and  _160
REMARK   61  A    between atoms: _160  and  _161
REMARK   62  A    between atoms: _161  and  _162
REMARK   63  A    between atoms: _166  and  _168
REMARK   64  A    between atoms: _168  and  _169
REMARK   65  A    between atoms: _171  and  _173
REMARK   66  A    between atoms: _173  and  _174
REMARK   67  A    between atoms: _173  and  _176
REMARK   68  A    between atoms: _179  and  _181
REMARK   69  A    between atoms: _181  and  _182
REMARK   70  A    between atoms: _184  and  _186
REMARK   71  A    between atoms: _186  and  _187
REMARK   72  A    between atoms: _186  and  _189
REMARK   73  A    between atoms: _189  and  _190
REMARK   74  A    between atoms: _193  and  _195
REMARK   75  A    between atoms: _195  and  _196
REMARK   76  A    between atoms: _195  and  _198
REMARK   77  A    between atoms: _198  and  _199
REMARK   78  A    between atoms: _199  and  _200
REMARK   79  A    between atoms: _200  and  _201
REMARK   80  A    between atoms: _201  and  _202
REMARK   81  A    between atoms: _206  and  _208
REMARK   82  A    between atoms: _208  and  _209
REMARK   83  A    between atoms: _208  and  _211
REMARK   84  A    between atoms: _211  and  _212
REMARK   85  A    between atoms: _212  and  _213
REMARK   86  A    between atoms: _215  and  _217
REMARK   87  A    between atoms: _217  and  _218
REMARK   88  A    between atoms: _217  and  _220
REMARK   89  A    between atoms: _220  and  _221
REMARK   90  A    between atoms: _226  and  _227
REMARK   91  A    between atoms: _229  and  _231
REMARK   92  A    between atoms: _231  and  _232
REMARK   93  A    between atoms: _231  and  _234
REMARK   94  A    between atoms: _234  and  _235
REMARK   95  A    between atoms: _238  and  _240
REMARK   96  A    between atoms: _240  and  _241
REMARK   97  A    between atoms: _240  and  _243
REMARK   98  A    between atoms: _243  and  _244
REMARK   99  A    between atoms: _250  and  _252
REMARK  100  A    between atoms: _252  and  _253
REMARK  101  A    between atoms: _252  and  _255
REMARK  102  A    between atoms: _255  and  _256
REMARK  103  A    between atoms: _261  and  _262
REMARK  104  A    between atoms: _264  and  _266
REMARK  105  A    between atoms: _266  and  _267
REMARK  106  A    between atoms: _269  and  _271
REMARK  107  A    between atoms: _271  and  _272
REMARK  108  A    between atoms: _274  and  _276
REMARK  109  A    between atoms: _276  and  _277
REMARK  110  A    between atoms: _276  and  _279
REMARK  111  A    between atoms: _279  and  _280
REMARK  112  A    between atoms: _290  and  _292
REMARK  113  A    between atoms: _292  and  _293
REMARK  114  A    between atoms: _292  and  _295
REMARK  115  A    between atoms: _295  and  _296
REMARK  116  A    between atoms: _301  and  _303
REMARK  117  A    between atoms: _303  and  _304
REMARK  118  A    between atoms: _303  and  _306
REMARK  119  A    between atoms: _306  and  _307
REMARK  120  A    between atoms: _307  and  _308
REMARK  121  A    between atoms: _313  and  _315
REMARK  122  A    between atoms: _315  and  _316
REMARK  123  A    between atoms: _315  and  _318
REMARK  124  A    between atoms: _318  and  _319
REMARK  125  A    between atoms: _324  and  _325
REMARK  126  A    between atoms: _327  and  _329
REMARK  127  A    between atoms: _329  and  _330
REMARK  128  A    between atoms: _329  and  _332
REMARK  129  A    between atoms: _332  and  _333
REMARK  130  A    between atoms: _338  and  _339
REMARK  131  A    between atoms: _341  and  _343
REMARK  132  A    between atoms: _343  and  _344
REMARK  133  A    between atoms: _343  and  _346
REMARK  134  A    between atoms: _346  and  _347
REMARK  135  A    between atoms: _347  and  _348
REMARK  136  A    between atoms: _348  and  _349
REMARK  137  A    between atoms: _358  and  _360
REMARK  138  A    between atoms: _360  and  _361
REMARK  139  A    between atoms: _360  and  _363
REMARK  140  A    between atoms: _363  and  _364
REMARK  141  A    between atoms: _364  and  _365
REMARK  142  A    between atoms: _365  and  _366
REMARK  143  A    between atoms: _366  and  _367
REMARK  144  A    between atoms: _371  and  _373
REMARK  145  A    between atoms: _373  and  _374
REMARK  146  A    between atoms: _373  and  _376
REMARK  147  A    between atoms: _376  and  _377
REMARK  148  A    between atoms: _377  and  _378
REMARK  149  A    between atoms: _381  and  _383
REMARK  150  A    between atoms: _383  and  _384
REMARK  151  A    between atoms: _383  and  _386
REMARK  152  A    between atoms: _389  and  _391
REMARK  153  A    between atoms: _391  and  _392
REMARK  154  A    between atoms: _391  and  _394
REMARK  155  A    between atoms: _394  and  _395
REMARK                            x       y       z     vdW  Elec       q    Type
REMARK                         _______ _______ _______ _____ _____    ______ ____
ROOT
ATOM      1  NE  ARG A   1      15.909  -4.877  18.615  0.00  0.00    -0.265 N 
ATOM      2  CZ  ARG A   1      15.885  -4.987  19.932  0.00  0.00    +0.342 C 
ATOM      3  NH2 ARG A   1      16.820  -4.417  20.713  0.00  0.00    -0.292 N 
ATOM      4 HH21 ARG A   1      16.770  -4.524  21.746  0.00  0.00    +0.255 HD
ATOM      5 HH22 ARG A   1      17.593  -3.869  20.284  0.00  0.00    +0.255 HD
ATOM      6  NH1 ARG A   1      14.872  -5.751  20.485  0.00  0.00    -0.292 N 
ATOM      7 HH11 ARG A   1      14.812  -5.867  21.517  0.00  0.00    +0.255 HD
ATOM      8 HH12 ARG A   1      14.171  -6.209  19.869  0.00  0.00    +0.255 HD
ATOM      9  HE  ARG A   1      15.168  -5.373  18.080  0.00  0.00    +0.259 HD
ENDROOT
BRANCH   1  10
ATOM     10  CD  ARG A   1      16.887  -4.119  17.857  0.00  0.00    +0.174 C 
BRANCH  10  11
ATOM     11  CG  ARG A   1      16.392  -2.682  17.743  0.00  0.00    +0.045 C 
BRANCH  11  12
ATOM     12  CB  ARG A   1      17.471  -1.840  17.048  0.00  0.00    +0.029 C 
BRANCH  12  13
ATOM     13  CA  ARG A   1      17.162  -0.315  17.136  0.00  0.00    +0.133 C 
BRANCH  13  14
ATOM     14  N   ARG A   1      15.991   0.023  16.314  0.00  0.00    -0.239 NA
ATOM     15  H   ARG A   1      15.991  -0.186  15.295  0.00  0.00    +0.142 HD
ENDBRANCH  13  14
BRANCH  13  16
ATOM     16  C   ARG A   1      18.300   0.531  16.635  0.00  0.00    +0.224 C 
ATOM     17  O   ARG A   1      18.271   0.953  15.439  0.00  0.00    -0.287 OA
ENDBRANCH  13  16
ENDBRANCH  12  13
ENDBRANCH  11  12
ENDBRANCH  10  11
ENDBRANCH   1  10
TORSDOF 6
REMARK  Name = ../refined-set-2016/3arq/3arq_pocket.pdb
REMARK  155 active torsions:
REMARK  status: ('A' for Active; 'I' for Inactive)
REMARK    1  A    between atoms: _1  and  _3
REMARK    2  A    between atoms: _3  and  _4
REMARK    3  A    between atoms: _3  and  _6
REMARK    4  A    between atoms: _6  and  _7
REMARK    5  A    between atoms: _17  and  _19
REMARK    6  A    between atoms: _19  and  _20
REMARK    7  A    between atoms: _19  and  _22
REMARK    8  A    between atoms: _22  and  _23
REMARK    9  A    between atoms: _29  and  _31
REMARK   10  A    between atoms: _31  and  _32
REMARK   11  A    between atoms: _31  and  _34
REMARK   12  A    between atoms: _34  and  _35
REMARK   13  A    between atoms: _37  and  _39
REMARK   14  A    between atoms: _39  and  _40
REMARK   15  A    between atoms: _39  and  _42
REMARK   16  A    between atoms: _45  and  _47
REMARK   17  A    between atoms: _47  and  _48
REMARK   18  A    between atoms: _50  and  _52
REMARK   19  A    between atoms: _52  and  _53
REMARK   20  A    between atoms: _52  and  _55
REMARK   21  A    between atoms: _55  and  _56
REMARK   22  A    between atoms: _66  and  _68
REMARK   23  A    between atoms: _68  and  _69
REMARK   24  A    between atoms: _68  and  _71
REMARK   25  A    between atoms: _71  and  _72
REMARK   26  A    between atoms: _75  and  _77
REMARK   27  A    between atoms: _77  and  _78
REMARK   28  A    between atoms: _77  and  _80
REMARK   29  A    between atoms: _80  and  _81
REMARK   30  A    between atoms: _86  and  _87
REMARK   31  A    between atoms: _89  and  _91
REMARK   32  A    between atoms: _91  and  _92
REMARK   33  A    between atoms: _91  and  _94
REMARK   34  A    between atoms: _94  and  _95
REMARK   35  A    between atoms: _95  and  _96
REMARK   36  A    between atoms: _99  and  _101
REMARK   37  A    between atoms: _101  and  _102
REMARK   38  A    between atoms: _101  and  _104
REMARK   39  A    between atoms: _104  and  _105
REMARK   40  A    between atoms: _111  and  _113
REMARK   41  A    between atoms: _113  and  _114
REMARK   42  A    between atoms: _116  and  _118
REMARK   43  A    between atoms: _118  and  _119
REMARK   44  A    between atoms: _121  and  _123
REMARK   45  A    between atoms: _123  and  _124
REMARK   46  A    between atoms: _126  and  _128
REMARK   47  A    between atoms: _128  and  _129
REMARK   48  A    between atoms: _132  and  _134
REMARK   49  A    between atoms: _134  and  _135
REMARK   50  A    between atoms: _138  and  _140
REMARK   51  A    between atoms: _140  and  _141
REMARK   52  A    between atoms: _144  and  _146
REMARK   53  A    between atoms: _146  and  _147
REMARK   54  A    between atoms: _146  and  _149
REMARK   55  A    between atoms: _149  and  _150
REMARK   56  A    between atoms: _153  and  _155
REMARK   57  A    between atoms: _155  and  _156
REMARK   58  A    between atoms: _155  and  _158
REMARK   59  A    between atoms: _158  and  _159
REMARK   60  A    between atoms: _159  and  _160
REMARK   61  A    between atoms: _160  and  _161
REMARK   62  A    between atoms: _161  and  _162
REMARK   63  A    between atoms: _166  and  _168
REMARK   64  A    between atoms: _168  and  _169
REMARK   65  A    between atoms: _171  and  _173
REMARK   66  A    between atoms: _173  and  _174
REMARK   67  A    between atoms: _173  and  _176
REMARK   68  A    between atoms: _179  and  _181
REMARK   69  A    between atoms: _181  and  _182
REMARK   70  A    between atoms: _184  and  _186
REMARK   71  A    between atoms: _186  and  _187
REMARK   72  A    between atoms: _186  and  _189
REMARK   73  A    between atoms: _189  and  _190
REMARK   74  A    between atoms: _193  and  _195
REMARK   75  A    between atoms: _195  and  _196
REMARK   76  A    between atoms: _195  and  _198
REMARK   77  A    between atoms: _198  and  _199
REMARK   78  A    between atoms: _199  and  _200
REMARK   79  A    between atoms: _200  and  _201
REMARK   80  A    between atoms: _201  and  _202
REMARK   81  A    between atoms: _206  and  _208
REMARK   82  A    between atoms: _208  and  _209
REMARK   83  A    between atoms: _208  and  _211
REMARK   84  A    between atoms: _211  and  _212
REMARK   85  A    between atoms: _212  and  _213
REMARK   86  A    between atoms: _215  and  _217
REMARK   87  A    between atoms: _217  and  _218
REMARK   88  A    between atoms: _217  and  _220
REMARK   89  A    between atoms: _220  and  _221
REMARK   90  A    between atoms: _226  and  _227
REMARK   91  A    between atoms: _229  and  _231
REMARK   92  A    between atoms: _231  and  _232
REMARK   93  A    between atoms: _231  and  _234
REMARK   94  A    between atoms: _234  and  _235
REMARK   95  A    between atoms: _238  and  _240
REMARK   96  A    between atoms: _240  and  _241
REMARK   97  A    between atoms: _240  and  _243
REMARK   98  A    between atoms: _243  and  _244
REMARK   99  A    between atoms: _250  and  _252
REMARK  100  A    between atoms: _252  and  _253
REMARK  101  A    between atoms: _252  and  _255
REMARK  102  A    between atoms: _255  and  _256
REMARK  103  A    between atoms: _261  and  _262
REMARK  104  A    between atoms: _264  and  _266
REMARK  105  A    between atoms: _266  and  _267
REMARK  106  A    between atoms: _269  and  _271
REMARK  107  A    between atoms: _271  and  _272
REMARK  108  A    between atoms: _274  and  _276
REMARK  109  A    between atoms: _276  and  _277
REMARK  110  A    between atoms: _276  and  _279
REMARK  111  A    between atoms: _279  and  _280
REMARK  112  A    between atoms: _290  and  _292
REMARK  113  A    between atoms: _292  and  _293
REMARK  114  A    between atoms: _292  and  _295
REMARK  115  A    between atoms: _295  and  _296
REMARK  116  A    between atoms: _301  and  _303
REMARK  117  A    between atoms: _303  and  _304
REMARK  118  A    between atoms: _303  and  _306
REMARK  119  A    between atoms: _306  and  _307
REMARK  120  A    between atoms: _307  and  _308
REMARK  121  A    between atoms: _313  and  _315
REMARK  122  A    between atoms: _315  and  _316
REMARK  123  A    between atoms: _315  and  _318
REMARK  124  A    between atoms: _318  and  _319
REMARK  125  A    between atoms: _324  and  _325
REMARK  126  A    between atoms: _327  and  _329
REMARK  127  A    between atoms: _329  and  _330
REMARK  128  A    between atoms: _329  and  _332
REMARK  129  A    between atoms: _332  and  _333
REMARK  130  A    between atoms: _338  and  _339
REMARK  131  A    between atoms: _341  and  _343
REMARK  132  A    between atoms: _343  and  _344
REMARK  133  A    between atoms: _343  and  _346
REMARK  134  A    between atoms: _346  and  _347
REMARK  135  A    between atoms: _347  and  _348
REMARK  136  A    between atoms: _348  and  _349
REMARK  137  A    between atoms: _358  and  _360
REMARK  138  A    between atoms: _360  and  _361
REMARK  139  A    between atoms: _360  and  _363
REMARK  140  A    between atoms: _363  and  _364
REMARK  141  A    between atoms: _364  and  _365
REMARK  142  A    between atoms: _365  and  _366
REMARK  143  A    between atoms: _366  and  _367
REMARK  144  A    between atoms: _371  and  _373
REMARK  145  A    between atoms: _373  and  _374
REMARK  146  A    between atoms: _373  and  _376
REMARK  147  A    between atoms: _376  and  _377
REMARK  148  A    between atoms: _377  and  _378
REMARK  149  A    between atoms: _381  and  _383
REMARK  150  A    between atoms: _383  and  _384
REMARK  151  A    between atoms: _383  and  _386
REMARK  152  A    between atoms: _389  and  _391
REMARK  153  A    between atoms: _391  and  _392
REMARK  154  A    between atoms: _391  and  _394
REMARK  155  A    between atoms: _394  and  _395
REMARK                            x       y       z     vdW  Elec       q    Type
REMARK                         _______ _______ _______ _____ _____    ______ ____
ROOT
ATOM      1  CG  LYS A   1      23.549  -0.481  23.077  0.00  0.00    -0.000 C 
ENDROOT
BRANCH   1   2
ATOM      2  CB  LYS A   1      23.351   0.971  22.938  0.00  0.00    +0.025 C 
BRANCH   2   3
ATOM      3  CA  LYS A   1      24.080   1.577  21.720  0.00  0.00    +0.133 C 
BRANCH   3   4
ATOM      4  N   LYS A   1      25.550   1.472  21.948  0.00  0.00    -0.239 NA
ATOM      5  H   LYS A   1      25.889   1.252  22.906  0.00  0.00    +0.142 HD
ENDBRANCH   3   4
BRANCH   3   6
ATOM      6  C   LYS A   1      23.643   3.045  21.609  0.00  0.00    +0.224 C 
ATOM      7  O   LYS A   1      24.247   3.960  22.257  0.00  0.00    -0.287 OA
ENDBRANCH   3   6
ENDBRANCH   2   3
ENDBRANCH   1   2
BRANCH   1   8
ATOM      8  CD  LYS A   1      22.926  -0.979  24.341  0.00  0.00    -0.024 C 
BRANCH   8   9
ATOM      9  CE  LYS A   1      23.133  -2.508  24.399  0.00  0.00    -0.086 C 
BRANCH   9  10
ATOM     10  NZ  LYS A   1      22.545  -2.937  25.706  0.00  0.00    +0.380 N 
ATOM     11  HZ1 LYS A   1      23.041  -2.455  26.483  0.00  0.00    -0.089 HD
ATOM     12  HZ2 LYS A   1      22.651  -3.966  25.811  0.00  0.00    -0.089 HD
ATOM     13  HZ3 LYS A   1      21.536  -2.687  25.729  0.00  0.00    -0.089 HD
ENDBRANCH   9  10
ENDBRANCH   8   9
ENDBRANCH   1   8
TORSDOF 7
REMARK  Name = ../refined-set-2016/3arq/3arq_pocket.pdb
REMARK  155 active torsions:
REMARK  status: ('A' for Active; 'I' for Inactive)
REMARK    1  A    between atoms: _1  and  _3
REMARK    2  A    between atoms: _3  and  _4
REMARK    3  A    between atoms: _3  and  _6
REMARK    4  A    between atoms: _6  and  _7
REMARK    5  A    between atoms: _17  and  _19
REMARK    6  A    between atoms: _19  and  _20
REMARK    7  A    between atoms: _19  and  _22
REMARK    8  A    between atoms: _22  and  _23
REMARK    9  A    between atoms: _29  and  _31
REMARK   10  A    between atoms: _31  and  _32
REMARK   11  A    between atoms: _31  and  _34
REMARK   12  A    between atoms: _34  and  _35
REMARK   13  A    between atoms: _37  and  _39
REMARK   14  A    between atoms: _39  and  _40
REMARK   15  A    between atoms: _39  and  _42
REMARK   16  A    between atoms: _45  and  _47
REMARK   17  A    between atoms: _47  and  _48
REMARK   18  A    between atoms: _50  and  _52
REMARK   19  A    between atoms: _52  and  _53
REMARK   20  A    between atoms: _52  and  _55
REMARK   21  A    between atoms: _55  and  _56
REMARK   22  A    between atoms: _66  and  _68
REMARK   23  A    between atoms: _68  and  _69
REMARK   24  A    between atoms: _68  and  _71
REMARK   25  A    between atoms: _71  and  _72
REMARK   26  A    between atoms: _75  and  _77
REMARK   27  A    between atoms: _77  and  _78
REMARK   28  A    between atoms: _77  and  _80
REMARK   29  A    between atoms: _80  and  _81
REMARK   30  A    between atoms: _86  and  _87
REMARK   31  A    between atoms: _89  and  _91
REMARK   32  A    between atoms: _91  and  _92
REMARK   33  A    between atoms: _91  and  _94
REMARK   34  A    between atoms: _94  and  _95
REMARK   35  A    between atoms: _95  and  _96
REMARK   36  A    between atoms: _99  and  _101
REMARK   37  A    between atoms: _101  and  _102
REMARK   38  A    between atoms: _101  and  _104
REMARK   39  A    between atoms: _104  and  _105
REMARK   40  A    between atoms: _111  and  _113
REMARK   41  A    between atoms: _113  and  _114
REMARK   42  A    between atoms: _116  and  _118
REMARK   43  A    between atoms: _118  and  _119
REMARK   44  A    between atoms: _121  and  _123
REMARK   45  A    between atoms: _123  and  _124
REMARK   46  A    between atoms: _126  and  _128
REMARK   47  A    between atoms: _128  and  _129
REMARK   48  A    between atoms: _132  and  _134
REMARK   49  A    between atoms: _134  and  _135
REMARK   50  A    between atoms: _138  and  _140
REMARK   51  A    between atoms: _140  and  _141
REMARK   52  A    between atoms: _144  and  _146
REMARK   53  A    between atoms: _146  and  _147
REMARK   54  A    between atoms: _146  and  _149
REMARK   55  A    between atoms: _149  and  _150
REMARK   56  A    between atoms: _153  and  _155
REMARK   57  A    between atoms: _155  and  _156
REMARK   58  A    between atoms: _155  and  _158
REMARK   59  A    between atoms: _158  and  _159
REMARK   60  A    between atoms: _159  and  _160
REMARK   61  A    between atoms: _160  and  _161
REMARK   62  A    between atoms: _161  and  _162
REMARK   63  A    between atoms: _166  and  _168
REMARK   64  A    between atoms: _168  and  _169
REMARK   65  A    between atoms: _171  and  _173
REMARK   66  A    between atoms: _173  and  _174
REMARK   67  A    between atoms: _173  and  _176
REMARK   68  A    between atoms: _179  and  _181
REMARK   69  A    between atoms: _181  and  _182
REMARK   70  A    between atoms: _184  and  _186
REMARK   71  A    between atoms: _186  and  _187
REMARK   72  A    between atoms: _186  and  _189
REMARK   73  A    between atoms: _189  and  _190
REMARK   74  A    between atoms: _193  and  _195
REMARK   75  A    between atoms: _195  and  _196
REMARK   76  A    between atoms: _195  and  _198
REMARK   77  A    between atoms: _198  and  _199
REMARK   78  A    between atoms: _199  and  _200
REMARK   79  A    between atoms: _200  and  _201
REMARK   80  A    between atoms: _201  and  _202
REMARK   81  A    between atoms: _206  and  _208
REMARK   82  A    between atoms: _208  and  _209
REMARK   83  A    between atoms: _208  and  _211
REMARK   84  A    between atoms: _211  and  _212
REMARK   85  A    between atoms: _212  and  _213
REMARK   86  A    between atoms: _215  and  _217
REMARK   87  A    between atoms: _217  and  _218
REMARK   88  A    between atoms: _217  and  _220
REMARK   89  A    between atoms: _220  and  _221
REMARK   90  A    between atoms: _226  and  _227
REMARK   91  A    between atoms: _229  and  _231
REMARK   92  A    between atoms: _231  and  _232
REMARK   93  A    between atoms: _231  and  _234
REMARK   94  A    between atoms: _234  and  _235
REMARK   95  A    between atoms: _238  and  _240
REMARK   96  A    between atoms: _240  and  _241
REMARK   97  A    between atoms: _240  and  _243
REMARK   98  A    between atoms: _243  and  _244
REMARK   99  A    between atoms: _250  and  _252
REMARK  100  A    between atoms: _252  and  _253
REMARK  101  A    between atoms: _252  and  _255
REMARK  102  A    between atoms: _255  and  _256
REMARK  103  A    between atoms: _261  and  _262
REMARK  104  A    between atoms: _264  and  _266
REMARK  105  A    between atoms: _266  and  _267
REMARK  106  A    between atoms: _269  and  _271
REMARK  107  A    between atoms: _271  and  _272
REMARK  108  A    between atoms: _274  and  _276
REMARK  109  A    between atoms: _276  and  _277
REMARK  110  A    between atoms: _276  and  _279
REMARK  111  A    between atoms: _279  and  _280
REMARK  112  A    between atoms: _290  and  _292
REMARK  113  A    between atoms: _292  and  _293
REMARK  114  A    between atoms: _292  and  _295
REMARK  115  A    between atoms: _295  and  _296
REMARK  116  A    between atoms: _301  and  _303
REMARK  117  A    between atoms: _303  and  _304
REMARK  118  A    between atoms: _303  and  _306
REMARK  119  A    between atoms: _306  and  _307
REMARK  120  A    between atoms: _307  and  _308
REMARK  121  A    between atoms: _313  and  _315
REMARK  122  A    between atoms: _315  and  _316
REMARK  123  A    between atoms: _315  and  _318
REMARK  124  A    between atoms: _318  and  _319
REMARK  125  A    between atoms: _324  and  _325
REMARK  126  A    between atoms: _327  and  _329
REMARK  127  A    between atoms: _329  and  _330
REMARK  128  A    between atoms: _329  and  _332
REMARK  129  A    between atoms: _332  and  _333
REMARK  130  A    between atoms: _338  and  _339
REMARK  131  A    between atoms: _341  and  _343
REMARK  132  A    between atoms: _343  and  _344
REMARK  133  A    between atoms: _343  and  _346
REMARK  134  A    between atoms: _346  and  _347
REMARK  135  A    between atoms: _347  and  _348
REMARK  136  A    between atoms: _348  and  _349
REMARK  137  A    between atoms: _358  and  _360
REMARK  138  A    between atoms: _360  and  _361
REMARK  139  A    between atoms: _360  and  _363
REMARK  140  A    between atoms: _363  and  _364
REMARK  141  A    between atoms: _364  and  _365
REMARK  142  A    between atoms: _365  and  _366
REMARK  143  A    between atoms: _366  and  _367
REMARK  144  A    between atoms: _371  and  _373
REMARK  145  A    between atoms: _373  and  _374
REMARK  146  A    between atoms: _373  and  _376
REMARK  147  A    between atoms: _376  and  _377
REMARK  148  A    between atoms: _377  and  _378
REMARK  149  A    between atoms: _381  and  _383
REMARK  150  A    between atoms: _383  and  _384
REMARK  151  A    between atoms: _383  and  _386
REMARK  152  A    between atoms: _389  and  _391
REMARK  153  A    between atoms: _391  and  _392
REMARK  154  A    between atoms: _391  and  _394
REMARK  155  A    between atoms: _394  and  _395
REMARK                            x       y       z     vdW  Elec       q    Type
REMARK                         _______ _______ _______ _____ _____    ______ ____
ROOT
ATOM      1  CA  GLU A   1      16.274   1.246  27.127  0.00  0.00    +0.102 C 
ENDROOT
BRANCH   1   2
ATOM      2  N   GLU A   1      15.037   1.961  26.786  0.00  0.00    -0.244 NA
ATOM      3  H   GLU A   1      14.805   2.119  25.785  0.00  0.00    +0.141 HD
ENDBRANCH   1   2
BRANCH   1   4
ATOM      4  C   GLU A   1      17.284   1.546  26.073  0.00  0.00    +0.199 C 
ATOM      5  O   GLU A   1      16.921   1.814  24.865  0.00  0.00    -0.219 OA
ENDBRANCH   1   4
BRANCH   1   6
ATOM      6  CB  GLU A   1      16.009  -0.224  27.235  0.00  0.00    +0.032 C 
BRANCH   6   7
ATOM      7  CG  GLU A   1      15.508  -0.804  25.990  0.00  0.00    +0.116 C 
BRANCH   7   8
ATOM      8  CD  GLU A   1      15.607  -2.351  26.004  0.00  0.00    +0.365 C 
ATOM      9  OE2 GLU A   1      16.656  -2.882  26.465  0.00  0.00    -0.246 OA
ATOM     10  OE1 GLU A   1      14.662  -3.024  25.498  0.00  0.00    -0.246 OA
ENDBRANCH   7   8
ENDBRANCH   6   7
ENDBRANCH   1   6
TORSDOF 5
REMARK  Name = ../refined-set-2016/3arq/3arq_pocket.pdb
REMARK  155 active torsions:
REMARK  status: ('A' for Active; 'I' for Inactive)
REMARK    1  A    between atoms: _1  and  _3
REMARK    2  A    between atoms: _3  and  _4
REMARK    3  A    between atoms: _3  and  _6
REMARK    4  A    between atoms: _6  and  _7
REMARK    5  A    between atoms: _17  and  _19
REMARK    6  A    between atoms: _19  and  _20
REMARK    7  A    between atoms: _19  and  _22
REMARK    8  A    between atoms: _22  and  _23
REMARK    9  A    between atoms: _29  and  _31
REMARK   10  A    between atoms: _31  and  _32
REMARK   11  A    between atoms: _31  and  _34
REMARK   12  A    between atoms: _34  and  _35
REMARK   13  A    between atoms: _37  and  _39
REMARK   14  A    between atoms: _39  and  _40
REMARK   15  A    between atoms: _39  and  _42
REMARK   16  A    between atoms: _45  and  _47
REMARK   17  A    between atoms: _47  and  _48
REMARK   18  A    between atoms: _50  and  _52
REMARK   19  A    between atoms: _52  and  _53
REMARK   20  A    between atoms: _52  and  _55
REMARK   21  A    between atoms: _55  and  _56
REMARK   22  A    between atoms: _66  and  _68
REMARK   23  A    between atoms: _68  and  _69
REMARK   24  A    between atoms: _68  and  _71
REMARK   25  A    between atoms: _71  and  _72
REMARK   26  A    between atoms: _75  and  _77
REMARK   27  A    between atoms: _77  and  _78
REMARK   28  A    between atoms: _77  and  _80
REMARK   29  A    between atoms: _80  and  _81
REMARK   30  A    between atoms: _86  and  _87
REMARK   31  A    between atoms: _89  and  _91
REMARK   32  A    between atoms: _91  and  _92
REMARK   33  A    between atoms: _91  and  _94
REMARK   34  A    between atoms: _94  and  _95
REMARK   35  A    between atoms: _95  and  _96
REMARK   36  A    between atoms: _99  and  _101
REMARK   37  A    between atoms: _101  and  _102
REMARK   38  A    between atoms: _101  and  _104
REMARK   39  A    between atoms: _104  and  _105
REMARK   40  A    between atoms: _111  and  _113
REMARK   41  A    between atoms: _113  and  _114
REMARK   42  A    between atoms: _116  and  _118
REMARK   43  A    between atoms: _118  and  _119
REMARK   44  A    between atoms: _121  and  _123
REMARK   45  A    between atoms: _123  and  _124
REMARK   46  A    between atoms: _126  and  _128
REMARK   47  A    between atoms: _128  and  _129
REMARK   48  A    between atoms: _132  and  _134
REMARK   49  A    between atoms: _134  and  _135
REMARK   50  A    between atoms: _138  and  _140
REMARK   51  A    between atoms: _140  and  _141
REMARK   52  A    between atoms: _144  and  _146
REMARK   53  A    between atoms: _146  and  _147
REMARK   54  A    between atoms: _146  and  _149
REMARK   55  A    between atoms: _149  and  _150
REMARK   56  A    between atoms: _153  and  _155
REMARK   57  A    between atoms: _155  and  _156
REMARK   58  A    between atoms: _155  and  _158
REMARK   59  A    between atoms: _158  and  _159
REMARK   60  A    between atoms: _159  and  _160
REMARK   61  A    between atoms: _160  and  _161
REMARK   62  A    between atoms: _161  and  _162
REMARK   63  A    between atoms: _166  and  _168
REMARK   64  A    between atoms: _168  and  _169
REMARK   65  A    between atoms: _171  and  _173
REMARK   66  A    between atoms: _173  and  _174
REMARK   67  A    between atoms: _173  and  _176
REMARK   68  A    between atoms: _179  and  _181
REMARK   69  A    between atoms: _181  and  _182
REMARK   70  A    between atoms: _184  and  _186
REMARK   71  A    between atoms: _186  and  _187
REMARK   72  A    between atoms: _186  and  _189
REMARK   73  A    between atoms: _189  and  _190
REMARK   74  A    between atoms: _193  and  _195
REMARK   75  A    between atoms: _195  and  _196
REMARK   76  A    between atoms: _195  and  _198
REMARK   77  A    between atoms: _198  and  _199
REMARK   78  A    between atoms: _199  and  _200
REMARK   79  A    between atoms: _200  and  _201
REMARK   80  A    between atoms: _201  and  _202
REMARK   81  A    between atoms: _206  and  _208
REMARK   82  A    between atoms: _208  and  _209
REMARK   83  A    between atoms: _208  and  _211
REMARK   84  A    between atoms: _211  and  _212
REMARK   85  A    between atoms: _212  and  _213
REMARK   86  A    between atoms: _215  and  _217
REMARK   87  A    between atoms: _217  and  _218
REMARK   88  A    between atoms: _217  and  _220
REMARK   89  A    between atoms: _220  and  _221
REMARK   90  A    between atoms: _226  and  _227
REMARK   91  A    between atoms: _229  and  _231
REMARK   92  A    between atoms: _231  and  _232
REMARK   93  A    between atoms: _231  and  _234
REMARK   94  A    between atoms: _234  and  _235
REMARK   95  A    between atoms: _238  and  _240
REMARK   96  A    between atoms: _240  and  _241
REMARK   97  A    between atoms: _240  and  _243
REMARK   98  A    between atoms: _243  and  _244
REMARK   99  A    between atoms: _250  and  _252
REMARK  100  A    between atoms: _252  and  _253
REMARK  101  A    between atoms: _252  and  _255
REMARK  102  A    between atoms: _255  and  _256
REMARK  103  A    between atoms: _261  and  _262
REMARK  104  A    between atoms: _264  and  _266
REMARK  105  A    between atoms: _266  and  _267
REMARK  106  A    between atoms: _269  and  _271
REMARK  107  A    between atoms: _271  and  _272
REMARK  108  A    between atoms: _274  and  _276
REMARK  109  A    between atoms: _276  and  _277
REMARK  110  A    between atoms: _276  and  _279
REMARK  111  A    between atoms: _279  and  _280
REMARK  112  A    between atoms: _290  and  _292
REMARK  113  A    between atoms: _292  and  _293
REMARK  114  A    between atoms: _292  and  _295
REMARK  115  A    between atoms: _295  and  _296
REMARK  116  A    between atoms: _301  and  _303
REMARK  117  A    between atoms: _303  and  _304
REMARK  118  A    between atoms: _303  and  _306
REMARK  119  A    between atoms: _306  and  _307
REMARK  120  A    between atoms: _307  and  _308
REMARK  121  A    between atoms: _313  and  _315
REMARK  122  A    between atoms: _315  and  _316
REMARK  123  A    between atoms: _315  and  _318
REMARK  124  A    between atoms: _318  and  _319
REMARK  125  A    between atoms: _324  and  _325
REMARK  126  A    between atoms: _327  and  _329
REMARK  127  A    between atoms: _329  and  _330
REMARK  128  A    between atoms: _329  and  _332
REMARK  129  A    between atoms: _332  and  _333
REMARK  130  A    between atoms: _338  and  _339
REMARK  131  A    between atoms: _341  and  _343
REMARK  132  A    between atoms: _343  and  _344
REMARK  133  A    between atoms: _343  and  _346
REMARK  134  A    between atoms: _346  and  _347
REMARK  135  A    between atoms: _347  and  _348
REMARK  136  A    between atoms: _348  and  _349
REMARK  137  A    between atoms: _358  and  _360
REMARK  138  A    between atoms: _360  and  _361
REMARK  139  A    between atoms: _360  and  _363
REMARK  140  A    between atoms: _363  and  _364
REMARK  141  A    between atoms: _364  and  _365
REMARK  142  A    between atoms: _365  and  _366
REMARK  143  A    between atoms: _366  and  _367
REMARK  144  A    between atoms: _371  and  _373
REMARK  145  A    between atoms: _373  and  _374
REMARK  146  A    between atoms: _373  and  _376
REMARK  147  A    between atoms: _376  and  _377
REMARK  148  A    between atoms: _377  and  _378
REMARK  149  A    between atoms: _381  and  _383
REMARK  150  A    between atoms: _383  and  _384
REMARK  151  A    between atoms: _383  and  _386
REMARK  152  A    between atoms: _389  and  _391
REMARK  153  A    between atoms: _391  and  _392
REMARK  154  A    between atoms: _391  and  _394
REMARK  155  A    between atoms: _394  and  _395
REMARK                            x       y       z     vdW  Elec       q    Type
REMARK                         _______ _______ _______ _____ _____    ______ ____
ROOT
ATOM      1  CA  VAL A   1      15.831   0.845  21.272  0.00  0.00    +0.133 C 
ENDROOT
BRANCH   1   2
ATOM      2  CB  VAL A   1      15.175  -0.166  22.110  0.00  0.00    +0.023 C 
ATOM      3  CG2 VAL A   1      16.060  -1.444  22.335  0.00  0.00    +0.002 C 
ATOM      4  CG1 VAL A   1      13.777  -0.601  21.491  0.00  0.00    +0.002 C 
ENDBRANCH   1   2
BRANCH   1   5
ATOM      5  N   VAL A   1      17.202   1.225  21.800  0.00  0.00    -0.239 NA
ATOM      6  H   VAL A   1      17.312   1.877  22.603  0.00  0.00    +0.142 HD
ENDBRANCH   1   5
BRANCH   1   7
ATOM      7  C   VAL A   1      15.039   2.196  21.399  0.00  0.00    +0.224 C 
ATOM      8  O   VAL A   1      15.106   2.908  22.402  0.00  0.00    -0.287 OA
ENDBRANCH   1   7
TORSDOF 3
REMARK  Name = ../refined-set-2016/3arq/3arq_pocket.pdb
REMARK  155 active torsions:
REMARK  status: ('A' for Active; 'I' for Inactive)
REMARK    1  A    between atoms: _1  and  _3
REMARK    2  A    between atoms: _3  and  _4
REMARK    3  A    between atoms: _3  and  _6
REMARK    4  A    between atoms: _6  and  _7
REMARK    5  A    between atoms: _17  and  _19
REMARK    6  A    between atoms: _19  and  _20
REMARK    7  A    between atoms: _19  and  _22
REMARK    8  A    between atoms: _22  and  _23
REMARK    9  A    between atoms: _29  and  _31
REMARK   10  A    between atoms: _31  and  _32
REMARK   11  A    between atoms: _31  and  _34
REMARK   12  A    between atoms: _34  and  _35
REMARK   13  A    between atoms: _37  and  _39
REMARK   14  A    between atoms: _39  and  _40
REMARK   15  A    between atoms: _39  and  _42
REMARK   16  A    between atoms: _45  and  _47
REMARK   17  A    between atoms: _47  and  _48
REMARK   18  A    between atoms: _50  and  _52
REMARK   19  A    between atoms: _52  and  _53
REMARK   20  A    between atoms: _52  and  _55
REMARK   21  A    between atoms: _55  and  _56
REMARK   22  A    between atoms: _66  and  _68
REMARK   23  A    between atoms: _68  and  _69
REMARK   24  A    between atoms: _68  and  _71
REMARK   25  A    between atoms: _71  and  _72
REMARK   26  A    between atoms: _75  and  _77
REMARK   27  A    between atoms: _77  and  _78
REMARK   28  A    between atoms: _77  and  _80
REMARK   29  A    between atoms: _80  and  _81
REMARK   30  A    between atoms: _86  and  _87
REMARK   31  A    between atoms: _89  and  _91
REMARK   32  A    between atoms: _91  and  _92
REMARK   33  A    between atoms: _91  and  _94
REMARK   34  A    between atoms: _94  and  _95
REMARK   35  A    between atoms: _95  and  _96
REMARK   36  A    between atoms: _99  and  _101
REMARK   37  A    between atoms: _101  and  _102
REMARK   38  A    between atoms: _101  and  _104
REMARK   39  A    between atoms: _104  and  _105
REMARK   40  A    between atoms: _111  and  _113
REMARK   41  A    between atoms: _113  and  _114
REMARK   42  A    between atoms: _116  and  _118
REMARK   43  A    between atoms: _118  and  _119
REMARK   44  A    between atoms: _121  and  _123
REMARK   45  A    between atoms: _123  and  _124
REMARK   46  A    between atoms: _126  and  _128
REMARK   47  A    between atoms: _128  and  _129
REMARK   48  A    between atoms: _132  and  _134
REMARK   49  A    between atoms: _134  and  _135
REMARK   50  A    between atoms: _138  and  _140
REMARK   51  A    between atoms: _140  and  _141
REMARK   52  A    between atoms: _144  and  _146
REMARK   53  A    between atoms: _146  and  _147
REMARK   54  A    between atoms: _146  and  _149
REMARK   55  A    between atoms: _149  and  _150
REMARK   56  A    between atoms: _153  and  _155
REMARK   57  A    between atoms: _155  and  _156
REMARK   58  A    between atoms: _155  and  _158
REMARK   59  A    between atoms: _158  and  _159
REMARK   60  A    between atoms: _159  and  _160
REMARK   61  A    between atoms: _160  and  _161
REMARK   62  A    between atoms: _161  and  _162
REMARK   63  A    between atoms: _166  and  _168
REMARK   64  A    between atoms: _168  and  _169
REMARK   65  A    between atoms: _171  and  _173
REMARK   66  A    between atoms: _173  and  _174
REMARK   67  A    between atoms: _173  and  _176
REMARK   68  A    between atoms: _179  and  _181
REMARK   69  A    between atoms: _181  and  _182
REMARK   70  A    between atoms: _184  and  _186
REMARK   71  A    between atoms: _186  and  _187
REMARK   72  A    between atoms: _186  and  _189
REMARK   73  A    between atoms: _189  and  _190
REMARK   74  A    between atoms: _193  and  _195
REMARK   75  A    between atoms: _195  and  _196
REMARK   76  A    between atoms: _195  and  _198
REMARK   77  A    between atoms: _198  and  _199
REMARK   78  A    between atoms: _199  and  _200
REMARK   79  A    between atoms: _200  and  _201
REMARK   80  A    between atoms: _201  and  _202
REMARK   81  A    between atoms: _206  and  _208
REMARK   82  A    between atoms: _208  and  _209
REMARK   83  A    between atoms: _208  and  _211
REMARK   84  A    between atoms: _211  and  _212
REMARK   85  A    between atoms: _212  and  _213
REMARK   86  A    between atoms: _215  and  _217
REMARK   87  A    between atoms: _217  and  _218
REMARK   88  A    between atoms: _217  and  _220
REMARK   89  A    between atoms: _220  and  _221
REMARK   90  A    between atoms: _226  and  _227
REMARK   91  A    between atoms: _229  and  _231
REMARK   92  A    between atoms: _231  and  _232
REMARK   93  A    between atoms: _231  and  _234
REMARK   94  A    between atoms: _234  and  _235
REMARK   95  A    between atoms: _238  and  _240
REMARK   96  A    between atoms: _240  and  _241
REMARK   97  A    between atoms: _240  and  _243
REMARK   98  A    between atoms: _243  and  _244
REMARK   99  A    between atoms: _250  and  _252
REMARK  100  A    between atoms: _252  and  _253
REMARK  101  A    between atoms: _252  and  _255
REMARK  102  A    between atoms: _255  and  _256
REMARK  103  A    between atoms: _261  and  _262
REMARK  104  A    between atoms: _264  and  _266
REMARK  105  A    between atoms: _266  and  _267
REMARK  106  A    between atoms: _269  and  _271
REMARK  107  A    between atoms: _271  and  _272
REMARK  108  A    between atoms: _274  and  _276
REMARK  109  A    between atoms: _276  and  _277
REMARK  110  A    between atoms: _276  and  _279
REMARK  111  A    between atoms: _279  and  _280
REMARK  112  A    between atoms: _290  and  _292
REMARK  113  A    between atoms: _292  and  _293
REMARK  114  A    between atoms: _292  and  _295
REMARK  115  A    between atoms: _295  and  _296
REMARK  116  A    between atoms: _301  and  _303
REMARK  117  A    between atoms: _303  and  _304
REMARK  118  A    between atoms: _303  and  _306
REMARK  119  A    between atoms: _306  and  _307
REMARK  120  A    between atoms: _307  and  _308
REMARK  121  A    between atoms: _313  and  _315
REMARK  122  A    between atoms: _315  and  _316
REMARK  123  A    between atoms: _315  and  _318
REMARK  124  A    between atoms: _318  and  _319
REMARK  125  A    between atoms: _324  and  _325
REMARK  126  A    between atoms: _327  and  _329
REMARK  127  A    between atoms: _329  and  _330
REMARK  128  A    between atoms: _329  and  _332
REMARK  129  A    between atoms: _332  and  _333
REMARK  130  A    between atoms: _338  and  _339
REMARK  131  A    between atoms: _341  and  _343
REMARK  132  A    between atoms: _343  and  _344
REMARK  133  A    between atoms: _343  and  _346
REMARK  134  A    between atoms: _346  and  _347
REMARK  135  A    between atoms: _347  and  _348
REMARK  136  A    between atoms: _348  and  _349
REMARK  137  A    between atoms: _358  and  _360
REMARK  138  A    between atoms: _360  and  _361
REMARK  139  A    between atoms: _360  and  _363
REMARK  140  A    between atoms: _363  and  _364
REMARK  141  A    between atoms: _364  and  _365
REMARK  142  A    between atoms: _365  and  _366
REMARK  143  A    between atoms: _366  and  _367
REMARK  144  A    between atoms: _371  and  _373
REMARK  145  A    between atoms: _373  and  _374
REMARK  146  A    between atoms: _373  and  _376
REMARK  147  A    between atoms: _376  and  _377
REMARK  148  A    between atoms: _377  and  _378
REMARK  149  A    between atoms: _381  and  _383
REMARK  150  A    between atoms: _383  and  _384
REMARK  151  A    between atoms: _383  and  _386
REMARK  152  A    between atoms: _389  and  _391
REMARK  153  A    between atoms: _391  and  _392
REMARK  154  A    between atoms: _391  and  _394
REMARK  155  A    between atoms: _394  and  _395
REMARK                            x       y       z     vdW  Elec       q    Type
REMARK                         _______ _______ _______ _____ _____    ______ ____
ROOT
ATOM      1  CG  TRP A   1       7.021  -5.630  19.959  0.00  0.00    -0.002 A 
ATOM      2  CD2 TRP A   1       6.652  -6.117  21.275  0.00  0.00    +0.013 A 
ATOM      3  CE2 TRP A   1       7.460  -5.436  22.205  0.00  0.00    +0.056 A 
ATOM      4  CZ2 TRP A   1       7.338  -5.667  23.622  0.00  0.00    +0.017 A 
ATOM      5  CH2 TRP A   1       6.394  -6.555  24.030  0.00  0.00    +0.001 A 
ATOM      6  CZ3 TRP A   1       5.606  -7.280  23.120  0.00  0.00    +0.000 A 
ATOM      7  NE1 TRP A   1       8.320  -4.637  21.492  0.00  0.00    -0.352 N 
ATOM      8  HE1 TRP A   1       9.053  -4.025  21.904  0.00  0.00    +0.166 HD
ATOM      9  CE3 TRP A   1       5.711  -7.054  21.740  0.00  0.00    +0.001 A 
ATOM     10  CD1 TRP A   1       8.058  -4.773  20.137  0.00  0.00    +0.068 A 
ENDROOT
BRANCH   1  11
ATOM     11  CB  TRP A   1       6.418  -5.994  18.663  0.00  0.00    +0.053 C 
BRANCH  11  12
ATOM     12  CA  TRP A   1       5.236  -5.049  18.274  0.00  0.00    +0.137 C 
BRANCH  12  13
ATOM     13  N   TRP A   1       4.820  -5.269  16.870  0.00  0.00    -0.239 NA
ATOM     14  H   TRP A   1       5.535  -5.210  16.117  0.00  0.00    +0.142 HD
ENDBRANCH  12  13
BRANCH  12  15
ATOM     15  C   TRP A   1       5.755  -3.590  18.280  0.00  0.00    +0.224 C 
ATOM     16  O   TRP A   1       6.539  -3.216  17.429  0.00  0.00    -0.287 OA
ENDBRANCH  12  15
ENDBRANCH  11  12
ENDBRANCH   1  11
TORSDOF 4
REMARK  Name = ../refined-set-2016/3arq/3arq_pocket.pdb
REMARK  155 active torsions:
REMARK  status: ('A' for Active; 'I' for Inactive)
REMARK    1  A    between atoms: _1  and  _3
REMARK    2  A    between atoms: _3  and  _4
REMARK    3  A    between atoms: _3  and  _6
REMARK    4  A    between atoms: _6  and  _7
REMARK    5  A    between atoms: _17  and  _19
REMARK    6  A    between atoms: _19  and  _20
REMARK    7  A    between atoms: _19  and  _22
REMARK    8  A    between atoms: _22  and  _23
REMARK    9  A    between atoms: _29  and  _31
REMARK   10  A    between atoms: _31  and  _32
REMARK   11  A    between atoms: _31  and  _34
REMARK   12  A    between atoms: _34  and  _35
REMARK   13  A    between atoms: _37  and  _39
REMARK   14  A    between atoms: _39  and  _40
REMARK   15  A    between atoms: _39  and  _42
REMARK   16  A    between atoms: _45  and  _47
REMARK   17  A    between atoms: _47  and  _48
REMARK   18  A    between atoms: _50  and  _52
REMARK   19  A    between atoms: _52  and  _53
REMARK   20  A    between atoms: _52  and  _55
REMARK   21  A    between atoms: _55  and  _56
REMARK   22  A    between atoms: _66  and  _68
REMARK   23  A    between atoms: _68  and  _69
REMARK   24  A    between atoms: _68  and  _71
REMARK   25  A    between atoms: _71  and  _72
REMARK   26  A    between atoms: _75  and  _77
REMARK   27  A    between atoms: _77  and  _78
REMARK   28  A    between atoms: _77  and  _80
REMARK   29  A    between atoms: _80  and  _81
REMARK   30  A    between atoms: _86  and  _87
REMARK   31  A    between atoms: _89  and  _91
REMARK   32  A    between atoms: _91  and  _92
REMARK   33  A    between atoms: _91  and  _94
REMARK   34  A    between atoms: _94  and  _95
REMARK   35  A    between atoms: _95  and  _96
REMARK   36  A    between atoms: _99  and  _101
REMARK   37  A    between atoms: _101  and  _102
REMARK   38  A    between atoms: _101  and  _104
REMARK   39  A    between atoms: _104  and  _105
REMARK   40  A    between atoms: _111  and  _113
REMARK   41  A    between atoms: _113  and  _114
REMARK   42  A    between atoms: _116  and  _118
REMARK   43  A    between atoms: _118  and  _119
REMARK   44  A    between atoms: _121  and  _123
REMARK   45  A    between atoms: _123  and  _124
REMARK   46  A    between atoms: _126  and  _128
REMARK   47  A    between atoms: _128  and  _129
REMARK   48  A    between atoms: _132  and  _134
REMARK   49  A    between atoms: _134  and  _135
REMARK   50  A    between atoms: _138  and  _140
REMARK   51  A    between atoms: _140  and  _141
REMARK   52  A    between atoms: _144  and  _146
REMARK   53  A    between atoms: _146  and  _147
REMARK   54  A    between atoms: _146  and  _149
REMARK   55  A    between atoms: _149  and  _150
REMARK   56  A    between atoms: _153  and  _155
REMARK   57  A    between atoms: _155  and  _156
REMARK   58  A    between atoms: _155  and  _158
REMARK   59  A    between atoms: _158  and  _159
REMARK   60  A    between atoms: _159  and  _160
REMARK   61  A    between atoms: _160  and  _161
REMARK   62  A    between atoms: _161  and  _162
REMARK   63  A    between atoms: _166  and  _168
REMARK   64  A    between atoms: _168  and  _169
REMARK   65  A    between atoms: _171  and  _173
REMARK   66  A    between atoms: _173  and  _174
REMARK   67  A    between atoms: _173  and  _176
REMARK   68  A    between atoms: _179  and  _181
REMARK   69  A    between atoms: _181  and  _182
REMARK   70  A    between atoms: _184  and  _186
REMARK   71  A    between atoms: _186  and  _187
REMARK   72  A    between atoms: _186  and  _189
REMARK   73  A    between atoms: _189  and  _190
REMARK   74  A    between atoms: _193  and  _195
REMARK   75  A    between atoms: _195  and  _196
REMARK   76  A    between atoms: _195  and  _198
REMARK   77  A    between atoms: _198  and  _199
REMARK   78  A    between atoms: _199  and  _200
REMARK   79  A    between atoms: _200  and  _201
REMARK   80  A    between atoms: _201  and  _202
REMARK   81  A    between atoms: _206  and  _208
REMARK   82  A    between atoms: _208  and  _209
REMARK   83  A    between atoms: _208  and  _211
REMARK   84  A    between atoms: _211  and  _212
REMARK   85  A    between atoms: _212  and  _213
REMARK   86  A    between atoms: _215  and  _217
REMARK   87  A    between atoms: _217  and  _218
REMARK   88  A    between atoms: _217  and  _220
REMARK   89  A    between atoms: _220  and  _221
REMARK   90  A    between atoms: _226  and  _227
REMARK   91  A    between atoms: _229  and  _231
REMARK   92  A    between atoms: _231  and  _232
REMARK   93  A    between atoms: _231  and  _234
REMARK   94  A    between atoms: _234  and  _235
REMARK   95  A    between atoms: _238  and  _240
REMARK   96  A    between atoms: _240  and  _241
REMARK   97  A    between atoms: _240  and  _243
REMARK   98  A    between atoms: _243  and  _244
REMARK   99  A    between atoms: _250  and  _252
REMARK  100  A    between atoms: _252  and  _253
REMARK  101  A    between atoms: _252  and  _255
REMARK  102  A    between atoms: _255  and  _256
REMARK  103  A    between atoms: _261  and  _262
REMARK  104  A    between atoms: _264  and  _266
REMARK  105  A    between atoms: _266  and  _267
REMARK  106  A    between atoms: _269  and  _271
REMARK  107  A    between atoms: _271  and  _272
REMARK  108  A    between atoms: _274  and  _276
REMARK  109  A    between atoms: _276  and  _277
REMARK  110  A    between atoms: _276  and  _279
REMARK  111  A    between atoms: _279  and  _280
REMARK  112  A    between atoms: _290  and  _292
REMARK  113  A    between atoms: _292  and  _293
REMARK  114  A    between atoms: _292  and  _295
REMARK  115  A    between atoms: _295  and  _296
REMARK  116  A    between atoms: _301  and  _303
REMARK  117  A    between atoms: _303  and  _304
REMARK  118  A    between atoms: _303  and  _306
REMARK  119  A    between atoms: _306  and  _307
REMARK  120  A    between atoms: _307  and  _308
REMARK  121  A    between atoms: _313  and  _315
REMARK  122  A    between atoms: _315  and  _316
REMARK  123  A    between atoms: _315  and  _318
REMARK  124  A    between atoms: _318  and  _319
REMARK  125  A    between atoms: _324  and  _325
REMARK  126  A    between atoms: _327  and  _329
REMARK  127  A    between atoms: _329  and  _330
REMARK  128  A    between atoms: _329  and  _332
REMARK  129  A    between atoms: _332  and  _333
REMARK  130  A    between atoms: _338  and  _339
REMARK  131  A    between atoms: _341  and  _343
REMARK  132  A    between atoms: _343  and  _344
REMARK  133  A    between atoms: _343  and  _346
REMARK  134  A    between atoms: _346  and  _347
REMARK  135  A    between atoms: _347  and  _348
REMARK  136  A    between atoms: _348  and  _349
REMARK  137  A    between atoms: _358  and  _360
REMARK  138  A    between atoms: _360  and  _361
REMARK  139  A    between atoms: _360  and  _363
REMARK  140  A    between atoms: _363  and  _364
REMARK  141  A    between atoms: _364  and  _365
REMARK  142  A    between atoms: _365  and  _366
REMARK  143  A    between atoms: _366  and  _367
REMARK  144  A    between atoms: _371  and  _373
REMARK  145  A    between atoms: _373  and  _374
REMARK  146  A    between atoms: _373  and  _376
REMARK  147  A    between atoms: _376  and  _377
REMARK  148  A    between atoms: _377  and  _378
REMARK  149  A    between atoms: _381  and  _383
REMARK  150  A    between atoms: _383  and  _384
REMARK  151  A    between atoms: _383  and  _386
REMARK  152  A    between atoms: _389  and  _391
REMARK  153  A    between atoms: _391  and  _392
REMARK  154  A    between atoms: _391  and  _394
REMARK  155  A    between atoms: _394  and  _395
REMARK                            x       y       z     vdW  Elec       q    Type
REMARK                         _______ _______ _______ _____ _____    ______ ____
ROOT
ATOM      1  O   HOH     1      19.024  -2.545  20.225  0.00  0.00    +0.000 OA
ENDROOT
TORSDOF 0
REMARK  Name = ../refined-set-2016/3arq/3arq_pocket.pdb
REMARK  155 active torsions:
REMARK  status: ('A' for Active; 'I' for Inactive)
REMARK    1  A    between atoms: _1  and  _3
REMARK    2  A    between atoms: _3  and  _4
REMARK    3  A    between atoms: _3  and  _6
REMARK    4  A    between atoms: _6  and  _7
REMARK    5  A    between atoms: _17  and  _19
REMARK    6  A    between atoms: _19  and  _20
REMARK    7  A    between atoms: _19  and  _22
REMARK    8  A    between atoms: _22  and  _23
REMARK    9  A    between atoms: _29  and  _31
REMARK   10  A    between atoms: _31  and  _32
REMARK   11  A    between atoms: _31  and  _34
REMARK   12  A    between atoms: _34  and  _35
REMARK   13  A    between atoms: _37  and  _39
REMARK   14  A    between atoms: _39  and  _40
REMARK   15  A    between atoms: _39  and  _42
REMARK   16  A    between atoms: _45  and  _47
REMARK   17  A    between atoms: _47  and  _48
REMARK   18  A    between atoms: _50  and  _52
REMARK   19  A    between atoms: _52  and  _53
REMARK   20  A    between atoms: _52  and  _55
REMARK   21  A    between atoms: _55  and  _56
REMARK   22  A    between atoms: _66  and  _68
REMARK   23  A    between atoms: _68  and  _69
REMARK   24  A    between atoms: _68  and  _71
REMARK   25  A    between atoms: _71  and  _72
REMARK   26  A    between atoms: _75  and  _77
REMARK   27  A    between atoms: _77  and  _78
REMARK   28  A    between atoms: _77  and  _80
REMARK   29  A    between atoms: _80  and  _81
REMARK   30  A    between atoms: _86  and  _87
REMARK   31  A    between atoms: _89  and  _91
REMARK   32  A    between atoms: _91  and  _92
REMARK   33  A    between atoms: _91  and  _94
REMARK   34  A    between atoms: _94  and  _95
REMARK   35  A    between atoms: _95  and  _96
REMARK   36  A    between atoms: _99  and  _101
REMARK   37  A    between atoms: _101  and  _102
REMARK   38  A    between atoms: _101  and  _104
REMARK   39  A    between atoms: _104  and  _105
REMARK   40  A    between atoms: _111  and  _113
REMARK   41  A    between atoms: _113  and  _114
REMARK   42  A    between atoms: _116  and  _118
REMARK   43  A    between atoms: _118  and  _119
REMARK   44  A    between atoms: _121  and  _123
REMARK   45  A    between atoms: _123  and  _124
REMARK   46  A    between atoms: _126  and  _128
REMARK   47  A    between atoms: _128  and  _129
REMARK   48  A    between atoms: _132  and  _134
REMARK   49  A    between atoms: _134  and  _135
REMARK   50  A    between atoms: _138  and  _140
REMARK   51  A    between atoms: _140  and  _141
REMARK   52  A    between atoms: _144  and  _146
REMARK   53  A    between atoms: _146  and  _147
REMARK   54  A    between atoms: _146  and  _149
REMARK   55  A    between atoms: _149  and  _150
REMARK   56  A    between atoms: _153  and  _155
REMARK   57  A    between atoms: _155  and  _156
REMARK   58  A    between atoms: _155  and  _158
REMARK   59  A    between atoms: _158  and  _159
REMARK   60  A    between atoms: _159  and  _160
REMARK   61  A    between atoms: _160  and  _161
REMARK   62  A    between atoms: _161  and  _162
REMARK   63  A    between atoms: _166  and  _168
REMARK   64  A    between atoms: _168  and  _169
REMARK   65  A    between atoms: _171  and  _173
REMARK   66  A    between atoms: _173  and  _174
REMARK   67  A    between atoms: _173  and  _176
REMARK   68  A    between atoms: _179  and  _181
REMARK   69  A    between atoms: _181  and  _182
REMARK   70  A    between atoms: _184  and  _186
REMARK   71  A    between atoms: _186  and  _187
REMARK   72  A    between atoms: _186  and  _189
REMARK   73  A    between atoms: _189  and  _190
REMARK   74  A    between atoms: _193  and  _195
REMARK   75  A    between atoms: _195  and  _196
REMARK   76  A    between atoms: _195  and  _198
REMARK   77  A    between atoms: _198  and  _199
REMARK   78  A    between atoms: _199  and  _200
REMARK   79  A    between atoms: _200  and  _201
REMARK   80  A    between atoms: _201  and  _202
REMARK   81  A    between atoms: _206  and  _208
REMARK   82  A    between atoms: _208  and  _209
REMARK   83  A    between atoms: _208  and  _211
REMARK   84  A    between atoms: _211  and  _212
REMARK   85  A    between atoms: _212  and  _213
REMARK   86  A    between atoms: _215  and  _217
REMARK   87  A    between atoms: _217  and  _218
REMARK   88  A    between atoms: _217  and  _220
REMARK   89  A    between atoms: _220  and  _221
REMARK   90  A    between atoms: _226  and  _227
REMARK   91  A    between atoms: _229  and  _231
REMARK   92  A    between atoms: _231  and  _232
REMARK   93  A    between atoms: _231  and  _234
REMARK   94  A    between atoms: _234  and  _235
REMARK   95  A    between atoms: _238  and  _240
REMARK   96  A    between atoms: _240  and  _241
REMARK   97  A    between atoms: _240  and  _243
REMARK   98  A    between atoms: _243  and  _244
REMARK   99  A    between atoms: _250  and  _252
REMARK  100  A    between atoms: _252  and  _253
REMARK  101  A    between atoms: _252  and  _255
REMARK  102  A    between atoms: _255  and  _256
REMARK  103  A    between atoms: _261  and  _262
REMARK  104  A    between atoms: _264  and  _266
REMARK  105  A    between atoms: _266  and  _267
REMARK  106  A    between atoms: _269  and  _271
REMARK  107  A    between atoms: _271  and  _272
REMARK  108  A    between atoms: _274  and  _276
REMARK  109  A    between atoms: _276  and  _277
REMARK  110  A    between atoms: _276  and  _279
REMARK  111  A    between atoms: _279  and  _280
REMARK  112  A    between atoms: _290  and  _292
REMARK  113  A    between atoms: _292  and  _293
REMARK  114  A    between atoms: _292  and  _295
REMARK  115  A    between atoms: _295  and  _296
REMARK  116  A    between atoms: _301  and  _303
REMARK  117  A    between atoms: _303  and  _304
REMARK  118  A    between atoms: _303  and  _306
REMARK  119  A    between atoms: _306  and  _307
REMARK  120  A    between atoms: _307  and  _308
REMARK  121  A    between atoms: _313  and  _315
REMARK  122  A    between atoms: _315  and  _316
REMARK  123  A    between atoms: _315  and  _318
REMARK  124  A    between atoms: _318  and  _319
REMARK  125  A    between atoms: _324  and  _325
REMARK  126  A    between atoms: _327  and  _329
REMARK  127  A    between atoms: _329  and  _330
REMARK  128  A    between atoms: _329  and  _332
REMARK  129  A    between atoms: _332  and  _333
REMARK  130  A    between atoms: _338  and  _339
REMARK  131  A    between atoms: _341  and  _343
REMARK  132  A    between atoms: _343  and  _344
REMARK  133  A    between atoms: _343  and  _346
REMARK  134  A    between atoms: _346  and  _347
REMARK  135  A    between atoms: _347  and  _348
REMARK  136  A    between atoms: _348  and  _349
REMARK  137  A    between atoms: _358  and  _360
REMARK  138  A    between atoms: _360  and  _361
REMARK  139  A    between atoms: _360  and  _363
REMARK  140  A    between atoms: _363  and  _364
REMARK  141  A    between atoms: _364  and  _365
REMARK  142  A    between atoms: _365  and  _366
REMARK  143  A    between atoms: _366  and  _367
REMARK  144  A    between atoms: _371  and  _373
REMARK  145  A    between atoms: _373  and  _374
REMARK  146  A    between atoms: _373  and  _376
REMARK  147  A    between atoms: _376  and  _377
REMARK  148  A    between atoms: _377  and  _378
REMARK  149  A    between atoms: _381  and  _383
REMARK  150  A    between atoms: _383  and  _384
REMARK  151  A    between atoms: _383  and  _386
REMARK  152  A    between atoms: _389  and  _391
REMARK  153  A    between atoms: _391  and  _392
REMARK  154  A    between atoms: _391  and  _394
REMARK  155  A    between atoms: _394  and  _395
REMARK                            x       y       z     vdW  Elec       q    Type
REMARK                         _______ _______ _______ _____ _____    ______ ____
ROOT
ATOM      1  O   HOH     1      26.100  -6.211  24.404  0.00  0.00    +0.000 OA
ENDROOT
TORSDOF 0
REMARK  Name = ../refined-set-2016/3arq/3arq_pocket.pdb
REMARK  155 active torsions:
REMARK  status: ('A' for Active; 'I' for Inactive)
REMARK    1  A    between atoms: _1  and  _3
REMARK    2  A    between atoms: _3  and  _4
REMARK    3  A    between atoms: _3  and  _6
REMARK    4  A    between atoms: _6  and  _7
REMARK    5  A    between atoms: _17  and  _19
REMARK    6  A    between atoms: _19  and  _20
REMARK    7  A    between atoms: _19  and  _22
REMARK    8  A    between atoms: _22  and  _23
REMARK    9  A    between atoms: _29  and  _31
REMARK   10  A    between atoms: _31  and  _32
REMARK   11  A    between atoms: _31  and  _34
REMARK   12  A    between atoms: _34  and  _35
REMARK   13  A    between atoms: _37  and  _39
REMARK   14  A    between atoms: _39  and  _40
REMARK   15  A    between atoms: _39  and  _42
REMARK   16  A    between atoms: _45  and  _47
REMARK   17  A    between atoms: _47  and  _48
REMARK   18  A    between atoms: _50  and  _52
REMARK   19  A    between atoms: _52  and  _53
REMARK   20  A    between atoms: _52  and  _55
REMARK   21  A    between atoms: _55  and  _56
REMARK   22  A    between atoms: _66  and  _68
REMARK   23  A    between atoms: _68  and  _69
REMARK   24  A    between atoms: _68  and  _71
REMARK   25  A    between atoms: _71  and  _72
REMARK   26  A    between atoms: _75  and  _77
REMARK   27  A    between atoms: _77  and  _78
REMARK   28  A    between atoms: _77  and  _80
REMARK   29  A    between atoms: _80  and  _81
REMARK   30  A    between atoms: _86  and  _87
REMARK   31  A    between atoms: _89  and  _91
REMARK   32  A    between atoms: _91  and  _92
REMARK   33  A    between atoms: _91  and  _94
REMARK   34  A    between atoms: _94  and  _95
REMARK   35  A    between atoms: _95  and  _96
REMARK   36  A    between atoms: _99  and  _101
REMARK   37  A    between atoms: _101  and  _102
REMARK   38  A    between atoms: _101  and  _104
REMARK   39  A    between atoms: _104  and  _105
REMARK   40  A    between atoms: _111  and  _113
REMARK   41  A    between atoms: _113  and  _114
REMARK   42  A    between atoms: _116  and  _118
REMARK   43  A    between atoms: _118  and  _119
REMARK   44  A    between atoms: _121  and  _123
REMARK   45  A    between atoms: _123  and  _124
REMARK   46  A    between atoms: _126  and  _128
REMARK   47  A    between atoms: _128  and  _129
REMARK   48  A    between atoms: _132  and  _134
REMARK   49  A    between atoms: _134  and  _135
REMARK   50  A    between atoms: _138  and  _140
REMARK   51  A    between atoms: _140  and  _141
REMARK   52  A    between atoms: _144  and  _146
REMARK   53  A    between atoms: _146  and  _147
REMARK   54  A    between atoms: _146  and  _149
REMARK   55  A    between atoms: _149  and  _150
REMARK   56  A    between atoms: _153  and  _155
REMARK   57  A    between atoms: _155  and  _156
REMARK   58  A    between atoms: _155  and  _158
REMARK   59  A    between atoms: _158  and  _159
REMARK   60  A    between atoms: _159  and  _160
REMARK   61  A    between atoms: _160  and  _161
REMARK   62  A    between atoms: _161  and  _162
REMARK   63  A    between atoms: _166  and  _168
REMARK   64  A    between atoms: _168  and  _169
REMARK   65  A    between atoms: _171  and  _173
REMARK   66  A    between atoms: _173  and  _174
REMARK   67  A    between atoms: _173  and  _176
REMARK   68  A    between atoms: _179  and  _181
REMARK   69  A    between atoms: _181  and  _182
REMARK   70  A    between atoms: _184  and  _186
REMARK   71  A    between atoms: _186  and  _187
REMARK   72  A    between atoms: _186  and  _189
REMARK   73  A    between atoms: _189  and  _190
REMARK   74  A    between atoms: _193  and  _195
REMARK   75  A    between atoms: _195  and  _196
REMARK   76  A    between atoms: _195  and  _198
REMARK   77  A    between atoms: _198  and  _199
REMARK   78  A    between atoms: _199  and  _200
REMARK   79  A    between atoms: _200  and  _201
REMARK   80  A    between atoms: _201  and  _202
REMARK   81  A    between atoms: _206  and  _208
REMARK   82  A    between atoms: _208  and  _209
REMARK   83  A    between atoms: _208  and  _211
REMARK   84  A    between atoms: _211  and  _212
REMARK   85  A    between atoms: _212  and  _213
REMARK   86  A    between atoms: _215  and  _217
REMARK   87  A    between atoms: _217  and  _218
REMARK   88  A    between atoms: _217  and  _220
REMARK   89  A    between atoms: _220  and  _221
REMARK   90  A    between atoms: _226  and  _227
REMARK   91  A    between atoms: _229  and  _231
REMARK   92  A    between atoms: _231  and  _232
REMARK   93  A    between atoms: _231  and  _234
REMARK   94  A    between atoms: _234  and  _235
REMARK   95  A    between atoms: _238  and  _240
REMARK   96  A    between atoms: _240  and  _241
REMARK   97  A    between atoms: _240  and  _243
REMARK   98  A    between atoms: _243  and  _244
REMARK   99  A    between atoms: _250  and  _252
REMARK  100  A    between atoms: _252  and  _253
REMARK  101  A    between atoms: _252  and  _255
REMARK  102  A    between atoms: _255  and  _256
REMARK  103  A    between atoms: _261  and  _262
REMARK  104  A    between atoms: _264  and  _266
REMARK  105  A    between atoms: _266  and  _267
REMARK  106  A    between atoms: _269  and  _271
REMARK  107  A    between atoms: _271  and  _272
REMARK  108  A    between atoms: _274  and  _276
REMARK  109  A    between atoms: _276  and  _277
REMARK  110  A    between atoms: _276  and  _279
REMARK  111  A    between atoms: _279  and  _280
REMARK  112  A    between atoms: _290  and  _292
REMARK  113  A    between atoms: _292  and  _293
REMARK  114  A    between atoms: _292  and  _295
REMARK  115  A    between atoms: _295  and  _296
REMARK  116  A    between atoms: _301  and  _303
REMARK  117  A    between atoms: _303  and  _304
REMARK  118  A    between atoms: _303  and  _306
REMARK  119  A    between atoms: _306  and  _307
REMARK  120  A    between atoms: _307  and  _308
REMARK  121  A    between atoms: _313  and  _315
REMARK  122  A    between atoms: _315  and  _316
REMARK  123  A    between atoms: _315  and  _318
REMARK  124  A    between atoms: _318  and  _319
REMARK  125  A    between atoms: _324  and  _325
REMARK  126  A    between atoms: _327  and  _329
REMARK  127  A    between atoms: _329  and  _330
REMARK  128  A    between atoms: _329  and  _332
REMARK  129  A    between atoms: _332  and  _333
REMARK  130  A    between atoms: _338  and  _339
REMARK  131  A    between atoms: _341  and  _343
REMARK  132  A    between atoms: _343  and  _344
REMARK  133  A    between atoms: _343  and  _346
REMARK  134  A    between atoms: _346  and  _347
REMARK  135  A    between atoms: _347  and  _348
REMARK  136  A    between atoms: _348  and  _349
REMARK  137  A    between atoms: _358  and  _360
REMARK  138  A    between atoms: _360  and  _361
REMARK  139  A    between atoms: _360  and  _363
REMARK  140  A    between atoms: _363  and  _364
REMARK  141  A    between atoms: _364  and  _365
REMARK  142  A    between atoms: _365  and  _366
REMARK  143  A    between atoms: _366  and  _367
REMARK  144  A    between atoms: _371  and  _373
REMARK  145  A    between atoms: _373  and  _374
REMARK  146  A    between atoms: _373  and  _376
REMARK  147  A    between atoms: _376  and  _377
REMARK  148  A    between atoms: _377  and  _378
REMARK  149  A    between atoms: _381  and  _383
REMARK  150  A    between atoms: _383  and  _384
REMARK  151  A    between atoms: _383  and  _386
REMARK  152  A    between atoms: _389  and  _391
REMARK  153  A    between atoms: _391  and  _392
REMARK  154  A    between atoms: _391  and  _394
REMARK  155  A    between atoms: _394  and  _395
REMARK                            x       y       z     vdW  Elec       q    Type
REMARK                         _______ _______ _______ _____ _____    ______ ____
ROOT
ATOM      1  O   HOH     1      23.561 -11.704  11.793  0.00  0.00    +0.000 OA
ENDROOT
TORSDOF 0
REMARK  Name = ../refined-set-2016/3arq/3arq_pocket.pdb
REMARK  155 active torsions:
REMARK  status: ('A' for Active; 'I' for Inactive)
REMARK    1  A    between atoms: _1  and  _3
REMARK    2  A    between atoms: _3  and  _4
REMARK    3  A    between atoms: _3  and  _6
REMARK    4  A    between atoms: _6  and  _7
REMARK    5  A    between atoms: _17  and  _19
REMARK    6  A    between atoms: _19  and  _20
REMARK    7  A    between atoms: _19  and  _22
REMARK    8  A    between atoms: _22  and  _23
REMARK    9  A    between atoms: _29  and  _31
REMARK   10  A    between atoms: _31  and  _32
REMARK   11  A    between atoms: _31  and  _34
REMARK   12  A    between atoms: _34  and  _35
REMARK   13  A    between atoms: _37  and  _39
REMARK   14  A    between atoms: _39  and  _40
REMARK   15  A    between atoms: _39  and  _42
REMARK   16  A    between atoms: _45  and  _47
REMARK   17  A    between atoms: _47  and  _48
REMARK   18  A    between atoms: _50  and  _52
REMARK   19  A    between atoms: _52  and  _53
REMARK   20  A    between atoms: _52  and  _55
REMARK   21  A    between atoms: _55  and  _56
REMARK   22  A    between atoms: _66  and  _68
REMARK   23  A    between atoms: _68  and  _69
REMARK   24  A    between atoms: _68  and  _71
REMARK   25  A    between atoms: _71  and  _72
REMARK   26  A    between atoms: _75  and  _77
REMARK   27  A    between atoms: _77  and  _78
REMARK   28  A    between atoms: _77  and  _80
REMARK   29  A    between atoms: _80  and  _81
REMARK   30  A    between atoms: _86  and  _87
REMARK   31  A    between atoms: _89  and  _91
REMARK   32  A    between atoms: _91  and  _92
REMARK   33  A    between atoms: _91  and  _94
REMARK   34  A    between atoms: _94  and  _95
REMARK   35  A    between atoms: _95  and  _96
REMARK   36  A    between atoms: _99  and  _101
REMARK   37  A    between atoms: _101  and  _102
REMARK   38  A    between atoms: _101  and  _104
REMARK   39  A    between atoms: _104  and  _105
REMARK   40  A    between atoms: _111  and  _113
REMARK   41  A    between atoms: _113  and  _114
REMARK   42  A    between atoms: _116  and  _118
REMARK   43  A    between atoms: _118  and  _119
REMARK   44  A    between atoms: _121  and  _123
REMARK   45  A    between atoms: _123  and  _124
REMARK   46  A    between atoms: _126  and  _128
REMARK   47  A    between atoms: _128  and  _129
REMARK   48  A    between atoms: _132  and  _134
REMARK   49  A    between atoms: _134  and  _135
REMARK   50  A    between atoms: _138  and  _140
REMARK   51  A    between atoms: _140  and  _141
REMARK   52  A    between atoms: _144  and  _146
REMARK   53  A    between atoms: _146  and  _147
REMARK   54  A    between atoms: _146  and  _149
REMARK   55  A    between atoms: _149  and  _150
REMARK   56  A    between atoms: _153  and  _155
REMARK   57  A    between atoms: _155  and  _156
REMARK   58  A    between atoms: _155  and  _158
REMARK   59  A    between atoms: _158  and  _159
REMARK   60  A    between atoms: _159  and  _160
REMARK   61  A    between atoms: _160  and  _161
REMARK   62  A    between atoms: _161  and  _162
REMARK   63  A    between atoms: _166  and  _168
REMARK   64  A    between atoms: _168  and  _169
REMARK   65  A    between atoms: _171  and  _173
REMARK   66  A    between atoms: _173  and  _174
REMARK   67  A    between atoms: _173  and  _176
REMARK   68  A    between atoms: _179  and  _181
REMARK   69  A    between atoms: _181  and  _182
REMARK   70  A    between atoms: _184  and  _186
REMARK   71  A    between atoms: _186  and  _187
REMARK   72  A    between atoms: _186  and  _189
REMARK   73  A    between atoms: _189  and  _190
REMARK   74  A    between atoms: _193  and  _195
REMARK   75  A    between atoms: _195  and  _196
REMARK   76  A    between atoms: _195  and  _198
REMARK   77  A    between atoms: _198  and  _199
REMARK   78  A    between atoms: _199  and  _200
REMARK   79  A    between atoms: _200  and  _201
REMARK   80  A    between atoms: _201  and  _202
REMARK   81  A    between atoms: _206  and  _208
REMARK   82  A    between atoms: _208  and  _209
REMARK   83  A    between atoms: _208  and  _211
REMARK   84  A    between atoms: _211  and  _212
REMARK   85  A    between atoms: _212  and  _213
REMARK   86  A    between atoms: _215  and  _217
REMARK   87  A    between atoms: _217  and  _218
REMARK   88  A    between atoms: _217  and  _220
REMARK   89  A    between atoms: _220  and  _221
REMARK   90  A    between atoms: _226  and  _227
REMARK   91  A    between atoms: _229  and  _231
REMARK   92  A    between atoms: _231  and  _232
REMARK   93  A    between atoms: _231  and  _234
REMARK   94  A    between atoms: _234  and  _235
REMARK   95  A    between atoms: _238  and  _240
REMARK   96  A    between atoms: _240  and  _241
REMARK   97  A    between atoms: _240  and  _243
REMARK   98  A    between atoms: _243  and  _244
REMARK   99  A    between atoms: _250  and  _252
REMARK  100  A    between atoms: _252  and  _253
REMARK  101  A    between atoms: _252  and  _255
REMARK  102  A    between atoms: _255  and  _256
REMARK  103  A    between atoms: _261  and  _262
REMARK  104  A    between atoms: _264  and  _266
REMARK  105  A    between atoms: _266  and  _267
REMARK  106  A    between atoms: _269  and  _271
REMARK  107  A    between atoms: _271  and  _272
REMARK  108  A    between atoms: _274  and  _276
REMARK  109  A    between atoms: _276  and  _277
REMARK  110  A    between atoms: _276  and  _279
REMARK  111  A    between atoms: _279  and  _280
REMARK  112  A    between atoms: _290  and  _292
REMARK  113  A    between atoms: _292  and  _293
REMARK  114  A    between atoms: _292  and  _295
REMARK  115  A    between atoms: _295  and  _296
REMARK  116  A    between atoms: _301  and  _303
REMARK  117  A    between atoms: _303  and  _304
REMARK  118  A    between atoms: _303  and  _306
REMARK  119  A    between atoms: _306  and  _307
REMARK  120  A    between atoms: _307  and  _308
REMARK  121  A    between atoms: _313  and  _315
REMARK  122  A    between atoms: _315  and  _316
REMARK  123  A    between atoms: _315  and  _318
REMARK  124  A    between atoms: _318  and  _319
REMARK  125  A    between atoms: _324  and  _325
REMARK  126  A    between atoms: _327  and  _329
REMARK  127  A    between atoms: _329  and  _330
REMARK  128  A    between atoms: _329  and  _332
REMARK  129  A    between atoms: _332  and  _333
REMARK  130  A    between atoms: _338  and  _339
REMARK  131  A    between atoms: _341  and  _343
REMARK  132  A    between atoms: _343  and  _344
REMARK  133  A    between atoms: _343  and  _346
REMARK  134  A    between atoms: _346  and  _347
REMARK  135  A    between atoms: _347  and  _348
REMARK  136  A    between atoms: _348  and  _349
REMARK  137  A    between atoms: _358  and  _360
REMARK  138  A    between atoms: _360  and  _361
REMARK  139  A    between atoms: _360  and  _363
REMARK  140  A    between atoms: _363  and  _364
REMARK  141  A    between atoms: _364  and  _365
REMARK  142  A    between atoms: _365  and  _366
REMARK  143  A    between atoms: _366  and  _367
REMARK  144  A    between atoms: _371  and  _373
REMARK  145  A    between atoms: _373  and  _374
REMARK  146  A    between atoms: _373  and  _376
REMARK  147  A    between atoms: _376  and  _377
REMARK  148  A    between atoms: _377  and  _378
REMARK  149  A    between atoms: _381  and  _383
REMARK  150  A    between atoms: _383  and  _384
REMARK  151  A    between atoms: _383  and  _386
REMARK  152  A    between atoms: _389  and  _391
REMARK  153  A    between atoms: _391  and  _392
REMARK  154  A    between atoms: _391  and  _394
REMARK  155  A    between atoms: _394  and  _395
REMARK                            x       y       z     vdW  Elec       q    Type
REMARK                         _______ _______ _______ _____ _____    ______ ____
ROOT
ATOM      1  O   HOH     1      30.049  -8.721  16.838  0.00  0.00    +0.000 OA
ENDROOT
TORSDOF 0
REMARK  Name = ../refined-set-2016/3arq/3arq_pocket.pdb
REMARK  155 active torsions:
REMARK  status: ('A' for Active; 'I' for Inactive)
REMARK    1  A    between atoms: _1  and  _3
REMARK    2  A    between atoms: _3  and  _4
REMARK    3  A    between atoms: _3  and  _6
REMARK    4  A    between atoms: _6  and  _7
REMARK    5  A    between atoms: _17  and  _19
REMARK    6  A    between atoms: _19  and  _20
REMARK    7  A    between atoms: _19  and  _22
REMARK    8  A    between atoms: _22  and  _23
REMARK    9  A    between atoms: _29  and  _31
REMARK   10  A    between atoms: _31  and  _32
REMARK   11  A    between atoms: _31  and  _34
REMARK   12  A    between atoms: _34  and  _35
REMARK   13  A    between atoms: _37  and  _39
REMARK   14  A    between atoms: _39  and  _40
REMARK   15  A    between atoms: _39  and  _42
REMARK   16  A    between atoms: _45  and  _47
REMARK   17  A    between atoms: _47  and  _48
REMARK   18  A    between atoms: _50  and  _52
REMARK   19  A    between atoms: _52  and  _53
REMARK   20  A    between atoms: _52  and  _55
REMARK   21  A    between atoms: _55  and  _56
REMARK   22  A    between atoms: _66  and  _68
REMARK   23  A    between atoms: _68  and  _69
REMARK   24  A    between atoms: _68  and  _71
REMARK   25  A    between atoms: _71  and  _72
REMARK   26  A    between atoms: _75  and  _77
REMARK   27  A    between atoms: _77  and  _78
REMARK   28  A    between atoms: _77  and  _80
REMARK   29  A    between atoms: _80  and  _81
REMARK   30  A    between atoms: _86  and  _87
REMARK   31  A    between atoms: _89  and  _91
REMARK   32  A    between atoms: _91  and  _92
REMARK   33  A    between atoms: _91  and  _94
REMARK   34  A    between atoms: _94  and  _95
REMARK   35  A    between atoms: _95  and  _96
REMARK   36  A    between atoms: _99  and  _101
REMARK   37  A    between atoms: _101  and  _102
REMARK   38  A    between atoms: _101  and  _104
REMARK   39  A    between atoms: _104  and  _105
REMARK   40  A    between atoms: _111  and  _113
REMARK   41  A    between atoms: _113  and  _114
REMARK   42  A    between atoms: _116  and  _118
REMARK   43  A    between atoms: _118  and  _119
REMARK   44  A    between atoms: _121  and  _123
REMARK   45  A    between atoms: _123  and  _124
REMARK   46  A    between atoms: _126  and  _128
REMARK   47  A    between atoms: _128  and  _129
REMARK   48  A    between atoms: _132  and  _134
REMARK   49  A    between atoms: _134  and  _135
REMARK   50  A    between atoms: _138  and  _140
REMARK   51  A    between atoms: _140  and  _141
REMARK   52  A    between atoms: _144  and  _146
REMARK   53  A    between atoms: _146  and  _147
REMARK   54  A    between atoms: _146  and  _149
REMARK   55  A    between atoms: _149  and  _150
REMARK   56  A    between atoms: _153  and  _155
REMARK   57  A    between atoms: _155  and  _156
REMARK   58  A    between atoms: _155  and  _158
REMARK   59  A    between atoms: _158  and  _159
REMARK   60  A    between atoms: _159  and  _160
REMARK   61  A    between atoms: _160  and  _161
REMARK   62  A    between atoms: _161  and  _162
REMARK   63  A    between atoms: _166  and  _168
REMARK   64  A    between atoms: _168  and  _169
REMARK   65  A    between atoms: _171  and  _173
REMARK   66  A    between atoms: _173  and  _174
REMARK   67  A    between atoms: _173  and  _176
REMARK   68  A    between atoms: _179  and  _181
REMARK   69  A    between atoms: _181  and  _182
REMARK   70  A    between atoms: _184  and  _186
REMARK   71  A    between atoms: _186  and  _187
REMARK   72  A    between atoms: _186  and  _189
REMARK   73  A    between atoms: _189  and  _190
REMARK   74  A    between atoms: _193  and  _195
REMARK   75  A    between atoms: _195  and  _196
REMARK   76  A    between atoms: _195  and  _198
REMARK   77  A    between atoms: _198  and  _199
REMARK   78  A    between atoms: _199  and  _200
REMARK   79  A    between atoms: _200  and  _201
REMARK   80  A    between atoms: _201  and  _202
REMARK   81  A    between atoms: _206  and  _208
REMARK   82  A    between atoms: _208  and  _209
REMARK   83  A    between atoms: _208  and  _211
REMARK   84  A    between atoms: _211  and  _212
REMARK   85  A    between atoms: _212  and  _213
REMARK   86  A    between atoms: _215  and  _217
REMARK   87  A    between atoms: _217  and  _218
REMARK   88  A    between atoms: _217  and  _220
REMARK   89  A    between atoms: _220  and  _221
REMARK   90  A    between atoms: _226  and  _227
REMARK   91  A    between atoms: _229  and  _231
REMARK   92  A    between atoms: _231  and  _232
REMARK   93  A    between atoms: _231  and  _234
REMARK   94  A    between atoms: _234  and  _235
REMARK   95  A    between atoms: _238  and  _240
REMARK   96  A    between atoms: _240  and  _241
REMARK   97  A    between atoms: _240  and  _243
REMARK   98  A    between atoms: _243  and  _244
REMARK   99  A    between atoms: _250  and  _252
REMARK  100  A    between atoms: _252  and  _253
REMARK  101  A    between atoms: _252  and  _255
REMARK  102  A    between atoms: _255  and  _256
REMARK  103  A    between atoms: _261  and  _262
REMARK  104  A    between atoms: _264  and  _266
REMARK  105  A    between atoms: _266  and  _267
REMARK  106  A    between atoms: _269  and  _271
REMARK  107  A    between atoms: _271  and  _272
REMARK  108  A    between atoms: _274  and  _276
REMARK  109  A    between atoms: _276  and  _277
REMARK  110  A    between atoms: _276  and  _279
REMARK  111  A    between atoms: _279  and  _280
REMARK  112  A    between atoms: _290  and  _292
REMARK  113  A    between atoms: _292  and  _293
REMARK  114  A    between atoms: _292  and  _295
REMARK  115  A    between atoms: _295  and  _296
REMARK  116  A    between atoms: _301  and  _303
REMARK  117  A    between atoms: _303  and  _304
REMARK  118  A    between atoms: _303  and  _306
REMARK  119  A    between atoms: _306  and  _307
REMARK  120  A    between atoms: _307  and  _308
REMARK  121  A    between atoms: _313  and  _315
REMARK  122  A    between atoms: _315  and  _316
REMARK  123  A    between atoms: _315  and  _318
REMARK  124  A    between atoms: _318  and  _319
REMARK  125  A    between atoms: _324  and  _325
REMARK  126  A    between atoms: _327  and  _329
REMARK  127  A    between atoms: _329  and  _330
REMARK  128  A    between atoms: _329  and  _332
REMARK  129  A    between atoms: _332  and  _333
REMARK  130  A    between atoms: _338  and  _339
REMARK  131  A    between atoms: _341  and  _343
REMARK  132  A    between atoms: _343  and  _344
REMARK  133  A    between atoms: _343  and  _346
REMARK  134  A    between atoms: _346  and  _347
REMARK  135  A    between atoms: _347  and  _348
REMARK  136  A    between atoms: _348  and  _349
REMARK  137  A    between atoms: _358  and  _360
REMARK  138  A    between atoms: _360  and  _361
REMARK  139  A    between atoms: _360  and  _363
REMARK  140  A    between atoms: _363  and  _364
REMARK  141  A    between atoms: _364  and  _365
REMARK  142  A    between atoms: _365  and  _366
REMARK  143  A    between atoms: _366  and  _367
REMARK  144  A    between atoms: _371  and  _373
REMARK  145  A    between atoms: _373  and  _374
REMARK  146  A    between atoms: _373  and  _376
REMARK  147  A    between atoms: _376  and  _377
REMARK  148  A    between atoms: _377  and  _378
REMARK  149  A    between atoms: _381  and  _383
REMARK  150  A    between atoms: _383  and  _384
REMARK  151  A    between atoms: _383  and  _386
REMARK  152  A    between atoms: _389  and  _391
REMARK  153  A    between atoms: _391  and  _392
REMARK  154  A    between atoms: _391  and  _394
REMARK  155  A    between atoms: _394  and  _395
REMARK                            x       y       z     vdW  Elec       q    Type
REMARK                         _______ _______ _______ _____ _____    ______ ____
ROOT
ATOM      1  O   HOH     1      11.036  -7.428  19.657  0.00  0.00    +0.000 OA
ENDROOT
TORSDOF 0
REMARK  Name = ../refined-set-2016/3arq/3arq_pocket.pdb
REMARK  155 active torsions:
REMARK  status: ('A' for Active; 'I' for Inactive)
REMARK    1  A    between atoms: _1  and  _3
REMARK    2  A    between atoms: _3  and  _4
REMARK    3  A    between atoms: _3  and  _6
REMARK    4  A    between atoms: _6  and  _7
REMARK    5  A    between atoms: _17  and  _19
REMARK    6  A    between atoms: _19  and  _20
REMARK    7  A    between atoms: _19  and  _22
REMARK    8  A    between atoms: _22  and  _23
REMARK    9  A    between atoms: _29  and  _31
REMARK   10  A    between atoms: _31  and  _32
REMARK   11  A    between atoms: _31  and  _34
REMARK   12  A    between atoms: _34  and  _35
REMARK   13  A    between atoms: _37  and  _39
REMARK   14  A    between atoms: _39  and  _40
REMARK   15  A    between atoms: _39  and  _42
REMARK   16  A    between atoms: _45  and  _47
REMARK   17  A    between atoms: _47  and  _48
REMARK   18  A    between atoms: _50  and  _52
REMARK   19  A    between atoms: _52  and  _53
REMARK   20  A    between atoms: _52  and  _55
REMARK   21  A    between atoms: _55  and  _56
REMARK   22  A    between atoms: _66  and  _68
REMARK   23  A    between atoms: _68  and  _69
REMARK   24  A    between atoms: _68  and  _71
REMARK   25  A    between atoms: _71  and  _72
REMARK   26  A    between atoms: _75  and  _77
REMARK   27  A    between atoms: _77  and  _78
REMARK   28  A    between atoms: _77  and  _80
REMARK   29  A    between atoms: _80  and  _81
REMARK   30  A    between atoms: _86  and  _87
REMARK   31  A    between atoms: _89  and  _91
REMARK   32  A    between atoms: _91  and  _92
REMARK   33  A    between atoms: _91  and  _94
REMARK   34  A    between atoms: _94  and  _95
REMARK   35  A    between atoms: _95  and  _96
REMARK   36  A    between atoms: _99  and  _101
REMARK   37  A    between atoms: _101  and  _102
REMARK   38  A    between atoms: _101  and  _104
REMARK   39  A    between atoms: _104  and  _105
REMARK   40  A    between atoms: _111  and  _113
REMARK   41  A    between atoms: _113  and  _114
REMARK   42  A    between atoms: _116  and  _118
REMARK   43  A    between atoms: _118  and  _119
REMARK   44  A    between atoms: _121  and  _123
REMARK   45  A    between atoms: _123  and  _124
REMARK   46  A    between atoms: _126  and  _128
REMARK   47  A    between atoms: _128  and  _129
REMARK   48  A    between atoms: _132  and  _134
REMARK   49  A    between atoms: _134  and  _135
REMARK   50  A    between atoms: _138  and  _140
REMARK   51  A    between atoms: _140  and  _141
REMARK   52  A    between atoms: _144  and  _146
REMARK   53  A    between atoms: _146  and  _147
REMARK   54  A    between atoms: _146  and  _149
REMARK   55  A    between atoms: _149  and  _150
REMARK   56  A    between atoms: _153  and  _155
REMARK   57  A    between atoms: _155  and  _156
REMARK   58  A    between atoms: _155  and  _158
REMARK   59  A    between atoms: _158  and  _159
REMARK   60  A    between atoms: _159  and  _160
REMARK   61  A    between atoms: _160  and  _161
REMARK   62  A    between atoms: _161  and  _162
REMARK   63  A    between atoms: _166  and  _168
REMARK   64  A    between atoms: _168  and  _169
REMARK   65  A    between atoms: _171  and  _173
REMARK   66  A    between atoms: _173  and  _174
REMARK   67  A    between atoms: _173  and  _176
REMARK   68  A    between atoms: _179  and  _181
REMARK   69  A    between atoms: _181  and  _182
REMARK   70  A    between atoms: _184  and  _186
REMARK   71  A    between atoms: _186  and  _187
REMARK   72  A    between atoms: _186  and  _189
REMARK   73  A    between atoms: _189  and  _190
REMARK   74  A    between atoms: _193  and  _195
REMARK   75  A    between atoms: _195  and  _196
REMARK   76  A    between atoms: _195  and  _198
REMARK   77  A    between atoms: _198  and  _199
REMARK   78  A    between atoms: _199  and  _200
REMARK   79  A    between atoms: _200  and  _201
REMARK   80  A    between atoms: _201  and  _202
REMARK   81  A    between atoms: _206  and  _208
REMARK   82  A    between atoms: _208  and  _209
REMARK   83  A    between atoms: _208  and  _211
REMARK   84  A    between atoms: _211  and  _212
REMARK   85  A    between atoms: _212  and  _213
REMARK   86  A    between atoms: _215  and  _217
REMARK   87  A    between atoms: _217  and  _218
REMARK   88  A    between atoms: _217  and  _220
REMARK   89  A    between atoms: _220  and  _221
REMARK   90  A    between atoms: _226  and  _227
REMARK   91  A    between atoms: _229  and  _231
REMARK   92  A    between atoms: _231  and  _232
REMARK   93  A    between atoms: _231  and  _234
REMARK   94  A    between atoms: _234  and  _235
REMARK   95  A    between atoms: _238  and  _240
REMARK   96  A    between atoms: _240  and  _241
REMARK   97  A    between atoms: _240  and  _243
REMARK   98  A    between atoms: _243  and  _244
REMARK   99  A    between atoms: _250  and  _252
REMARK  100  A    between atoms: _252  and  _253
REMARK  101  A    between atoms: _252  and  _255
REMARK  102  A    between atoms: _255  and  _256
REMARK  103  A    between atoms: _261  and  _262
REMARK  104  A    between atoms: _264  and  _266
REMARK  105  A    between atoms: _266  and  _267
REMARK  106  A    between atoms: _269  and  _271
REMARK  107  A    between atoms: _271  and  _272
REMARK  108  A    between atoms: _274  and  _276
REMARK  109  A    between atoms: _276  and  _277
REMARK  110  A    between atoms: _276  and  _279
REMARK  111  A    between atoms: _279  and  _280
REMARK  112  A    between atoms: _290  and  _292
REMARK  113  A    between atoms: _292  and  _293
REMARK  114  A    between atoms: _292  and  _295
REMARK  115  A    between atoms: _295  and  _296
REMARK  116  A    between atoms: _301  and  _303
REMARK  117  A    between atoms: _303  and  _304
REMARK  118  A    between atoms: _303  and  _306
REMARK  119  A    between atoms: _306  and  _307
REMARK  120  A    between atoms: _307  and  _308
REMARK  121  A    between atoms: _313  and  _315
REMARK  122  A    between atoms: _315  and  _316
REMARK  123  A    between atoms: _315  and  _318
REMARK  124  A    between atoms: _318  and  _319
REMARK  125  A    between atoms: _324  and  _325
REMARK  126  A    between atoms: _327  and  _329
REMARK  127  A    between atoms: _329  and  _330
REMARK  128  A    between atoms: _329  and  _332
REMARK  129  A    between atoms: _332  and  _333
REMARK  130  A    between atoms: _338  and  _339
REMARK  131  A    between atoms: _341  and  _343
REMARK  132  A    between atoms: _343  and  _344
REMARK  133  A    between atoms: _343  and  _346
REMARK  134  A    between atoms: _346  and  _347
REMARK  135  A    between atoms: _347  and  _348
REMARK  136  A    between atoms: _348  and  _349
REMARK  137  A    between atoms: _358  and  _360
REMARK  138  A    between atoms: _360  and  _361
REMARK  139  A    between atoms: _360  and  _363
REMARK  140  A    between atoms: _363  and  _364
REMARK  141  A    between atoms: _364  and  _365
REMARK  142  A    between atoms: _365  and  _366
REMARK  143  A    between atoms: _366  and  _367
REMARK  144  A    between atoms: _371  and  _373
REMARK  145  A    between atoms: _373  and  _374
REMARK  146  A    between atoms: _373  and  _376
REMARK  147  A    between atoms: _376  and  _377
REMARK  148  A    between atoms: _377  and  _378
REMARK  149  A    between atoms: _381  and  _383
REMARK  150  A    between atoms: _383  and  _384
REMARK  151  A    between atoms: _383  and  _386
REMARK  152  A    between atoms: _389  and  _391
REMARK  153  A    between atoms: _391  and  _392
REMARK  154  A    between atoms: _391  and  _394
REMARK  155  A    between atoms: _394  and  _395
REMARK                            x       y       z     vdW  Elec       q    Type
REMARK                         _______ _______ _______ _____ _____    ______ ____
ROOT
ATOM      1  O   HOH     1      18.216 -16.087  15.180  0.00  0.00    +0.000 OA
ENDROOT
TORSDOF 0
REMARK  Name = ../refined-set-2016/3arq/3arq_pocket.pdb
REMARK  155 active torsions:
REMARK  status: ('A' for Active; 'I' for Inactive)
REMARK    1  A    between atoms: _1  and  _3
REMARK    2  A    between atoms: _3  and  _4
REMARK    3  A    between atoms: _3  and  _6
REMARK    4  A    between atoms: _6  and  _7
REMARK    5  A    between atoms: _17  and  _19
REMARK    6  A    between atoms: _19  and  _20
REMARK    7  A    between atoms: _19  and  _22
REMARK    8  A    between atoms: _22  and  _23
REMARK    9  A    between atoms: _29  and  _31
REMARK   10  A    between atoms: _31  and  _32
REMARK   11  A    between atoms: _31  and  _34
REMARK   12  A    between atoms: _34  and  _35
REMARK   13  A    between atoms: _37  and  _39
REMARK   14  A    between atoms: _39  and  _40
REMARK   15  A    between atoms: _39  and  _42
REMARK   16  A    between atoms: _45  and  _47
REMARK   17  A    between atoms: _47  and  _48
REMARK   18  A    between atoms: _50  and  _52
REMARK   19  A    between atoms: _52  and  _53
REMARK   20  A    between atoms: _52  and  _55
REMARK   21  A    between atoms: _55  and  _56
REMARK   22  A    between atoms: _66  and  _68
REMARK   23  A    between atoms: _68  and  _69
REMARK   24  A    between atoms: _68  and  _71
REMARK   25  A    between atoms: _71  and  _72
REMARK   26  A    between atoms: _75  and  _77
REMARK   27  A    between atoms: _77  and  _78
REMARK   28  A    between atoms: _77  and  _80
REMARK   29  A    between atoms: _80  and  _81
REMARK   30  A    between atoms: _86  and  _87
REMARK   31  A    between atoms: _89  and  _91
REMARK   32  A    between atoms: _91  and  _92
REMARK   33  A    between atoms: _91  and  _94
REMARK   34  A    between atoms: _94  and  _95
REMARK   35  A    between atoms: _95  and  _96
REMARK   36  A    between atoms: _99  and  _101
REMARK   37  A    between atoms: _101  and  _102
REMARK   38  A    between atoms: _101  and  _104
REMARK   39  A    between atoms: _104  and  _105
REMARK   40  A    between atoms: _111  and  _113
REMARK   41  A    between atoms: _113  and  _114
REMARK   42  A    between atoms: _116  and  _118
REMARK   43  A    between atoms: _118  and  _119
REMARK   44  A    between atoms: _121  and  _123
REMARK   45  A    between atoms: _123  and  _124
REMARK   46  A    between atoms: _126  and  _128
REMARK   47  A    between atoms: _128  and  _129
REMARK   48  A    between atoms: _132  and  _134
REMARK   49  A    between atoms: _134  and  _135
REMARK   50  A    between atoms: _138  and  _140
REMARK   51  A    between atoms: _140  and  _141
REMARK   52  A    between atoms: _144  and  _146
REMARK   53  A    between atoms: _146  and  _147
REMARK   54  A    between atoms: _146  and  _149
REMARK   55  A    between atoms: _149  and  _150
REMARK   56  A    between atoms: _153  and  _155
REMARK   57  A    between atoms: _155  and  _156
REMARK   58  A    between atoms: _155  and  _158
REMARK   59  A    between atoms: _158  and  _159
REMARK   60  A    between atoms: _159  and  _160
REMARK   61  A    between atoms: _160  and  _161
REMARK   62  A    between atoms: _161  and  _162
REMARK   63  A    between atoms: _166  and  _168
REMARK   64  A    between atoms: _168  and  _169
REMARK   65  A    between atoms: _171  and  _173
REMARK   66  A    between atoms: _173  and  _174
REMARK   67  A    between atoms: _173  and  _176
REMARK   68  A    between atoms: _179  and  _181
REMARK   69  A    between atoms: _181  and  _182
REMARK   70  A    between atoms: _184  and  _186
REMARK   71  A    between atoms: _186  and  _187
REMARK   72  A    between atoms: _186  and  _189
REMARK   73  A    between atoms: _189  and  _190
REMARK   74  A    between atoms: _193  and  _195
REMARK   75  A    between atoms: _195  and  _196
REMARK   76  A    between atoms: _195  and  _198
REMARK   77  A    between atoms: _198  and  _199
REMARK   78  A    between atoms: _199  and  _200
REMARK   79  A    between atoms: _200  and  _201
REMARK   80  A    between atoms: _201  and  _202
REMARK   81  A    between atoms: _206  and  _208
REMARK   82  A    between atoms: _208  and  _209
REMARK   83  A    between atoms: _208  and  _211
REMARK   84  A    between atoms: _211  and  _212
REMARK   85  A    between atoms: _212  and  _213
REMARK   86  A    between atoms: _215  and  _217
REMARK   87  A    between atoms: _217  and  _218
REMARK   88  A    between atoms: _217  and  _220
REMARK   89  A    between atoms: _220  and  _221
REMARK   90  A    between atoms: _226  and  _227
REMARK   91  A    between atoms: _229  and  _231
REMARK   92  A    between atoms: _231  and  _232
REMARK   93  A    between atoms: _231  and  _234
REMARK   94  A    between atoms: _234  and  _235
REMARK   95  A    between atoms: _238  and  _240
REMARK   96  A    between atoms: _240  and  _241
REMARK   97  A    between atoms: _240  and  _243
REMARK   98  A    between atoms: _243  and  _244
REMARK   99  A    between atoms: _250  and  _252
REMARK  100  A    between atoms: _252  and  _253
REMARK  101  A    between atoms: _252  and  _255
REMARK  102  A    between atoms: _255  and  _256
REMARK  103  A    between atoms: _261  and  _262
REMARK  104  A    between atoms: _264  and  _266
REMARK  105  A    between atoms: _266  and  _267
REMARK  106  A    between atoms: _269  and  _271
REMARK  107  A    between atoms: _271  and  _272
REMARK  108  A    between atoms: _274  and  _276
REMARK  109  A    between atoms: _276  and  _277
REMARK  110  A    between atoms: _276  and  _279
REMARK  111  A    between atoms: _279  and  _280
REMARK  112  A    between atoms: _290  and  _292
REMARK  113  A    between atoms: _292  and  _293
REMARK  114  A    between atoms: _292  and  _295
REMARK  115  A    between atoms: _295  and  _296
REMARK  116  A    between atoms: _301  and  _303
REMARK  117  A    between atoms: _303  and  _304
REMARK  118  A    between atoms: _303  and  _306
REMARK  119  A    between atoms: _306  and  _307
REMARK  120  A    between atoms: _307  and  _308
REMARK  121  A    between atoms: _313  and  _315
REMARK  122  A    between atoms: _315  and  _316
REMARK  123  A    between atoms: _315  and  _318
REMARK  124  A    between atoms: _318  and  _319
REMARK  125  A    between atoms: _324  and  _325
REMARK  126  A    between atoms: _327  and  _329
REMARK  127  A    between atoms: _329  and  _330
REMARK  128  A    between atoms: _329  and  _332
REMARK  129  A    between atoms: _332  and  _333
REMARK  130  A    between atoms: _338  and  _339
REMARK  131  A    between atoms: _341  and  _343
REMARK  132  A    between atoms: _343  and  _344
REMARK  133  A    between atoms: _343  and  _346
REMARK  134  A    between atoms: _346  and  _347
REMARK  135  A    between atoms: _347  and  _348
REMARK  136  A    between atoms: _348  and  _349
REMARK  137  A    between atoms: _358  and  _360
REMARK  138  A    between atoms: _360  and  _361
REMARK  139  A    between atoms: _360  and  _363
REMARK  140  A    between atoms: _363  and  _364
REMARK  141  A    between atoms: _364  and  _365
REMARK  142  A    between atoms: _365  and  _366
REMARK  143  A    between atoms: _366  and  _367
REMARK  144  A    between atoms: _371  and  _373
REMARK  145  A    between atoms: _373  and  _374
REMARK  146  A    between atoms: _373  and  _376
REMARK  147  A    between atoms: _376  and  _377
REMARK  148  A    between atoms: _377  and  _378
REMARK  149  A    between atoms: _381  and  _383
REMARK  150  A    between atoms: _383  and  _384
REMARK  151  A    between atoms: _383  and  _386
REMARK  152  A    between atoms: _389  and  _391
REMARK  153  A    between atoms: _391  and  _392
REMARK  154  A    between atoms: _391  and  _394
REMARK  155  A    between atoms: _394  and  _395
REMARK                            x       y       z     vdW  Elec       q    Type
REMARK                         _______ _______ _______ _____ _____    ______ ____
ROOT
ATOM      1  O   HOH     1      13.315 -11.196  19.113  0.00  0.00    +0.000 OA
ENDROOT
TORSDOF 0
REMARK  Name = ../refined-set-2016/3arq/3arq_pocket.pdb
REMARK  155 active torsions:
REMARK  status: ('A' for Active; 'I' for Inactive)
REMARK    1  A    between atoms: _1  and  _3
REMARK    2  A    between atoms: _3  and  _4
REMARK    3  A    between atoms: _3  and  _6
REMARK    4  A    between atoms: _6  and  _7
REMARK    5  A    between atoms: _17  and  _19
REMARK    6  A    between atoms: _19  and  _20
REMARK    7  A    between atoms: _19  and  _22
REMARK    8  A    between atoms: _22  and  _23
REMARK    9  A    between atoms: _29  and  _31
REMARK   10  A    between atoms: _31  and  _32
REMARK   11  A    between atoms: _31  and  _34
REMARK   12  A    between atoms: _34  and  _35
REMARK   13  A    between atoms: _37  and  _39
REMARK   14  A    between atoms: _39  and  _40
REMARK   15  A    between atoms: _39  and  _42
REMARK   16  A    between atoms: _45  and  _47
REMARK   17  A    between atoms: _47  and  _48
REMARK   18  A    between atoms: _50  and  _52
REMARK   19  A    between atoms: _52  and  _53
REMARK   20  A    between atoms: _52  and  _55
REMARK   21  A    between atoms: _55  and  _56
REMARK   22  A    between atoms: _66  and  _68
REMARK   23  A    between atoms: _68  and  _69
REMARK   24  A    between atoms: _68  and  _71
REMARK   25  A    between atoms: _71  and  _72
REMARK   26  A    between atoms: _75  and  _77
REMARK   27  A    between atoms: _77  and  _78
REMARK   28  A    between atoms: _77  and  _80
REMARK   29  A    between atoms: _80  and  _81
REMARK   30  A    between atoms: _86  and  _87
REMARK   31  A    between atoms: _89  and  _91
REMARK   32  A    between atoms: _91  and  _92
REMARK   33  A    between atoms: _91  and  _94
REMARK   34  A    between atoms: _94  and  _95
REMARK   35  A    between atoms: _95  and  _96
REMARK   36  A    between atoms: _99  and  _101
REMARK   37  A    between atoms: _101  and  _102
REMARK   38  A    between atoms: _101  and  _104
REMARK   39  A    between atoms: _104  and  _105
REMARK   40  A    between atoms: _111  and  _113
REMARK   41  A    between atoms: _113  and  _114
REMARK   42  A    between atoms: _116  and  _118
REMARK   43  A    between atoms: _118  and  _119
REMARK   44  A    between atoms: _121  and  _123
REMARK   45  A    between atoms: _123  and  _124
REMARK   46  A    between atoms: _126  and  _128
REMARK   47  A    between atoms: _128  and  _129
REMARK   48  A    between atoms: _132  and  _134
REMARK   49  A    between atoms: _134  and  _135
REMARK   50  A    between atoms: _138  and  _140
REMARK   51  A    between atoms: _140  and  _141
REMARK   52  A    between atoms: _144  and  _146
REMARK   53  A    between atoms: _146  and  _147
REMARK   54  A    between atoms: _146  and  _149
REMARK   55  A    between atoms: _149  and  _150
REMARK   56  A    between atoms: _153  and  _155
REMARK   57  A    between atoms: _155  and  _156
REMARK   58  A    between atoms: _155  and  _158
REMARK   59  A    between atoms: _158  and  _159
REMARK   60  A    between atoms: _159  and  _160
REMARK   61  A    between atoms: _160  and  _161
REMARK   62  A    between atoms: _161  and  _162
REMARK   63  A    between atoms: _166  and  _168
REMARK   64  A    between atoms: _168  and  _169
REMARK   65  A    between atoms: _171  and  _173
REMARK   66  A    between atoms: _173  and  _174
REMARK   67  A    between atoms: _173  and  _176
REMARK   68  A    between atoms: _179  and  _181
REMARK   69  A    between atoms: _181  and  _182
REMARK   70  A    between atoms: _184  and  _186
REMARK   71  A    between atoms: _186  and  _187
REMARK   72  A    between atoms: _186  and  _189
REMARK   73  A    between atoms: _189  and  _190
REMARK   74  A    between atoms: _193  and  _195
REMARK   75  A    between atoms: _195  and  _196
REMARK   76  A    between atoms: _195  and  _198
REMARK   77  A    between atoms: _198  and  _199
REMARK   78  A    between atoms: _199  and  _200
REMARK   79  A    between atoms: _200  and  _201
REMARK   80  A    between atoms: _201  and  _202
REMARK   81  A    between atoms: _206  and  _208
REMARK   82  A    between atoms: _208  and  _209
REMARK   83  A    between atoms: _208  and  _211
REMARK   84  A    between atoms: _211  and  _212
REMARK   85  A    between atoms: _212  and  _213
REMARK   86  A    between atoms: _215  and  _217
REMARK   87  A    between atoms: _217  and  _218
REMARK   88  A    between atoms: _217  and  _220
REMARK   89  A    between atoms: _220  and  _221
REMARK   90  A    between atoms: _226  and  _227
REMARK   91  A    between atoms: _229  and  _231
REMARK   92  A    between atoms: _231  and  _232
REMARK   93  A    between atoms: _231  and  _234
REMARK   94  A    between atoms: _234  and  _235
REMARK   95  A    between atoms: _238  and  _240
REMARK   96  A    between atoms: _240  and  _241
REMARK   97  A    between atoms: _240  and  _243
REMARK   98  A    between atoms: _243  and  _244
REMARK   99  A    between atoms: _250  and  _252
REMARK  100  A    between atoms: _252  and  _253
REMARK  101  A    between atoms: _252  and  _255
REMARK  102  A    between atoms: _255  and  _256
REMARK  103  A    between atoms: _261  and  _262
REMARK  104  A    between atoms: _264  and  _266
REMARK  105  A    between atoms: _266  and  _267
REMARK  106  A    between atoms: _269  and  _271
REMARK  107  A    between atoms: _271  and  _272
REMARK  108  A    between atoms: _274  and  _276
REMARK  109  A    between atoms: _276  and  _277
REMARK  110  A    between atoms: _276  and  _279
REMARK  111  A    between atoms: _279  and  _280
REMARK  112  A    between atoms: _290  and  _292
REMARK  113  A    between atoms: _292  and  _293
REMARK  114  A    between atoms: _292  and  _295
REMARK  115  A    between atoms: _295  and  _296
REMARK  116  A    between atoms: _301  and  _303
REMARK  117  A    between atoms: _303  and  _304
REMARK  118  A    between atoms: _303  and  _306
REMARK  119  A    between atoms: _306  and  _307
REMARK  120  A    between atoms: _307  and  _308
REMARK  121  A    between atoms: _313  and  _315
REMARK  122  A    between atoms: _315  and  _316
REMARK  123  A    between atoms: _315  and  _318
REMARK  124  A    between atoms: _318  and  _319
REMARK  125  A    between atoms: _324  and  _325
REMARK  126  A    between atoms: _327  and  _329
REMARK  127  A    between atoms: _329  and  _330
REMARK  128  A    between atoms: _329  and  _332
REMARK  129  A    between atoms: _332  and  _333
REMARK  130  A    between atoms: _338  and  _339
REMARK  131  A    between atoms: _341  and  _343
REMARK  132  A    between atoms: _343  and  _344
REMARK  133  A    between atoms: _343  and  _346
REMARK  134  A    between atoms: _346  and  _347
REMARK  135  A    between atoms: _347  and  _348
REMARK  136  A    between atoms: _348  and  _349
REMARK  137  A    between atoms: _358  and  _360
REMARK  138  A    between atoms: _360  and  _361
REMARK  139  A    between atoms: _360  and  _363
REMARK  140  A    between atoms: _363  and  _364
REMARK  141  A    between atoms: _364  and  _365
REMARK  142  A    between atoms: _365  and  _366
REMARK  143  A    between atoms: _366  and  _367
REMARK  144  A    between atoms: _371  and  _373
REMARK  145  A    between atoms: _373  and  _374
REMARK  146  A    between atoms: _373  and  _376
REMARK  147  A    between atoms: _376  and  _377
REMARK  148  A    between atoms: _377  and  _378
REMARK  149  A    between atoms: _381  and  _383
REMARK  150  A    between atoms: _383  and  _384
REMARK  151  A    between atoms: _383  and  _386
REMARK  152  A    between atoms: _389  and  _391
REMARK  153  A    between atoms: _391  and  _392
REMARK  154  A    between atoms: _391  and  _394
REMARK  155  A    between atoms: _394  and  _395
REMARK                            x       y       z     vdW  Elec       q    Type
REMARK                         _______ _______ _______ _____ _____    ______ ____
ROOT
ATOM      1  O   HOH     1      10.028  -9.463  27.108  0.00  0.00    +0.000 OA
ENDROOT
TORSDOF 0
REMARK  Name = ../refined-set-2016/3arq/3arq_pocket.pdb
REMARK  155 active torsions:
REMARK  status: ('A' for Active; 'I' for Inactive)
REMARK    1  A    between atoms: _1  and  _3
REMARK    2  A    between atoms: _3  and  _4
REMARK    3  A    between atoms: _3  and  _6
REMARK    4  A    between atoms: _6  and  _7
REMARK    5  A    between atoms: _17  and  _19
REMARK    6  A    between atoms: _19  and  _20
REMARK    7  A    between atoms: _19  and  _22
REMARK    8  A    between atoms: _22  and  _23
REMARK    9  A    between atoms: _29  and  _31
REMARK   10  A    between atoms: _31  and  _32
REMARK   11  A    between atoms: _31  and  _34
REMARK   12  A    between atoms: _34  and  _35
REMARK   13  A    between atoms: _37  and  _39
REMARK   14  A    between atoms: _39  and  _40
REMARK   15  A    between atoms: _39  and  _42
REMARK   16  A    between atoms: _45  and  _47
REMARK   17  A    between atoms: _47  and  _48
REMARK   18  A    between atoms: _50  and  _52
REMARK   19  A    between atoms: _52  and  _53
REMARK   20  A    between atoms: _52  and  _55
REMARK   21  A    between atoms: _55  and  _56
REMARK   22  A    between atoms: _66  and  _68
REMARK   23  A    between atoms: _68  and  _69
REMARK   24  A    between atoms: _68  and  _71
REMARK   25  A    between atoms: _71  and  _72
REMARK   26  A    between atoms: _75  and  _77
REMARK   27  A    between atoms: _77  and  _78
REMARK   28  A    between atoms: _77  and  _80
REMARK   29  A    between atoms: _80  and  _81
REMARK   30  A    between atoms: _86  and  _87
REMARK   31  A    between atoms: _89  and  _91
REMARK   32  A    between atoms: _91  and  _92
REMARK   33  A    between atoms: _91  and  _94
REMARK   34  A    between atoms: _94  and  _95
REMARK   35  A    between atoms: _95  and  _96
REMARK   36  A    between atoms: _99  and  _101
REMARK   37  A    between atoms: _101  and  _102
REMARK   38  A    between atoms: _101  and  _104
REMARK   39  A    between atoms: _104  and  _105
REMARK   40  A    between atoms: _111  and  _113
REMARK   41  A    between atoms: _113  and  _114
REMARK   42  A    between atoms: _116  and  _118
REMARK   43  A    between atoms: _118  and  _119
REMARK   44  A    between atoms: _121  and  _123
REMARK   45  A    between atoms: _123  and  _124
REMARK   46  A    between atoms: _126  and  _128
REMARK   47  A    between atoms: _128  and  _129
REMARK   48  A    between atoms: _132  and  _134
REMARK   49  A    between atoms: _134  and  _135
REMARK   50  A    between atoms: _138  and  _140
REMARK   51  A    between atoms: _140  and  _141
REMARK   52  A    between atoms: _144  and  _146
REMARK   53  A    between atoms: _146  and  _147
REMARK   54  A    between atoms: _146  and  _149
REMARK   55  A    between atoms: _149  and  _150
REMARK   56  A    between atoms: _153  and  _155
REMARK   57  A    between atoms: _155  and  _156
REMARK   58  A    between atoms: _155  and  _158
REMARK   59  A    between atoms: _158  and  _159
REMARK   60  A    between atoms: _159  and  _160
REMARK   61  A    between atoms: _160  and  _161
REMARK   62  A    between atoms: _161  and  _162
REMARK   63  A    between atoms: _166  and  _168
REMARK   64  A    between atoms: _168  and  _169
REMARK   65  A    between atoms: _171  and  _173
REMARK   66  A    between atoms: _173  and  _174
REMARK   67  A    between atoms: _173  and  _176
REMARK   68  A    between atoms: _179  and  _181
REMARK   69  A    between atoms: _181  and  _182
REMARK   70  A    between atoms: _184  and  _186
REMARK   71  A    between atoms: _186  and  _187
REMARK   72  A    between atoms: _186  and  _189
REMARK   73  A    between atoms: _189  and  _190
REMARK   74  A    between atoms: _193  and  _195
REMARK   75  A    between atoms: _195  and  _196
REMARK   76  A    between atoms: _195  and  _198
REMARK   77  A    between atoms: _198  and  _199
REMARK   78  A    between atoms: _199  and  _200
REMARK   79  A    between atoms: _200  and  _201
REMARK   80  A    between atoms: _201  and  _202
REMARK   81  A    between atoms: _206  and  _208
REMARK   82  A    between atoms: _208  and  _209
REMARK   83  A    between atoms: _208  and  _211
REMARK   84  A    between atoms: _211  and  _212
REMARK   85  A    between atoms: _212  and  _213
REMARK   86  A    between atoms: _215  and  _217
REMARK   87  A    between atoms: _217  and  _218
REMARK   88  A    between atoms: _217  and  _220
REMARK   89  A    between atoms: _220  and  _221
REMARK   90  A    between atoms: _226  and  _227
REMARK   91  A    between atoms: _229  and  _231
REMARK   92  A    between atoms: _231  and  _232
REMARK   93  A    between atoms: _231  and  _234
REMARK   94  A    between atoms: _234  and  _235
REMARK   95  A    between atoms: _238  and  _240
REMARK   96  A    between atoms: _240  and  _241
REMARK   97  A    between atoms: _240  and  _243
REMARK   98  A    between atoms: _243  and  _244
REMARK   99  A    between atoms: _250  and  _252
REMARK  100  A    between atoms: _252  and  _253
REMARK  101  A    between atoms: _252  and  _255
REMARK  102  A    between atoms: _255  and  _256
REMARK  103  A    between atoms: _261  and  _262
REMARK  104  A    between atoms: _264  and  _266
REMARK  105  A    between atoms: _266  and  _267
REMARK  106  A    between atoms: _269  and  _271
REMARK  107  A    between atoms: _271  and  _272
REMARK  108  A    between atoms: _274  and  _276
REMARK  109  A    between atoms: _276  and  _277
REMARK  110  A    between atoms: _276  and  _279
REMARK  111  A    between atoms: _279  and  _280
REMARK  112  A    between atoms: _290  and  _292
REMARK  113  A    between atoms: _292  and  _293
REMARK  114  A    between atoms: _292  and  _295
REMARK  115  A    between atoms: _295  and  _296
REMARK  116  A    between atoms: _301  and  _303
REMARK  117  A    between atoms: _303  and  _304
REMARK  118  A    between atoms: _303  and  _306
REMARK  119  A    between atoms: _306  and  _307
REMARK  120  A    between atoms: _307  and  _308
REMARK  121  A    between atoms: _313  and  _315
REMARK  122  A    between atoms: _315  and  _316
REMARK  123  A    between atoms: _315  and  _318
REMARK  124  A    between atoms: _318  and  _319
REMARK  125  A    between atoms: _324  and  _325
REMARK  126  A    between atoms: _327  and  _329
REMARK  127  A    between atoms: _329  and  _330
REMARK  128  A    between atoms: _329  and  _332
REMARK  129  A    between atoms: _332  and  _333
REMARK  130  A    between atoms: _338  and  _339
REMARK  131  A    between atoms: _341  and  _343
REMARK  132  A    between atoms: _343  and  _344
REMARK  133  A    between atoms: _343  and  _346
REMARK  134  A    between atoms: _346  and  _347
REMARK  135  A    between atoms: _347  and  _348
REMARK  136  A    between atoms: _348  and  _349
REMARK  137  A    between atoms: _358  and  _360
REMARK  138  A    between atoms: _360  and  _361
REMARK  139  A    between atoms: _360  and  _363
REMARK  140  A    between atoms: _363  and  _364
REMARK  141  A    between atoms: _364  and  _365
REMARK  142  A    between atoms: _365  and  _366
REMARK  143  A    between atoms: _366  and  _367
REMARK  144  A    between atoms: _371  and  _373
REMARK  145  A    between atoms: _373  and  _374
REMARK  146  A    between atoms: _373  and  _376
REMARK  147  A    between atoms: _376  and  _377
REMARK  148  A    between atoms: _377  and  _378
REMARK  149  A    between atoms: _381  and  _383
REMARK  150  A    between atoms: _383  and  _384
REMARK  151  A    between atoms: _383  and  _386
REMARK  152  A    between atoms: _389  and  _391
REMARK  153  A    between atoms: _391  and  _392
REMARK  154  A    between atoms: _391  and  _394
REMARK  155  A    between atoms: _394  and  _395
REMARK                            x       y       z     vdW  Elec       q    Type
REMARK                         _______ _______ _______ _____ _____    ______ ____
ROOT
ATOM      1  O   HOH     1       7.804 -11.311  22.187  0.00  0.00    +0.000 OA
ENDROOT
TORSDOF 0
REMARK  Name = ../refined-set-2016/3arq/3arq_pocket.pdb
REMARK  155 active torsions:
REMARK  status: ('A' for Active; 'I' for Inactive)
REMARK    1  A    between atoms: _1  and  _3
REMARK    2  A    between atoms: _3  and  _4
REMARK    3  A    between atoms: _3  and  _6
REMARK    4  A    between atoms: _6  and  _7
REMARK    5  A    between atoms: _17  and  _19
REMARK    6  A    between atoms: _19  and  _20
REMARK    7  A    between atoms: _19  and  _22
REMARK    8  A    between atoms: _22  and  _23
REMARK    9  A    between atoms: _29  and  _31
REMARK   10  A    between atoms: _31  and  _32
REMARK   11  A    between atoms: _31  and  _34
REMARK   12  A    between atoms: _34  and  _35
REMARK   13  A    between atoms: _37  and  _39
REMARK   14  A    between atoms: _39  and  _40
REMARK   15  A    between atoms: _39  and  _42
REMARK   16  A    between atoms: _45  and  _47
REMARK   17  A    between atoms: _47  and  _48
REMARK   18  A    between atoms: _50  and  _52
REMARK   19  A    between atoms: _52  and  _53
REMARK   20  A    between atoms: _52  and  _55
REMARK   21  A    between atoms: _55  and  _56
REMARK   22  A    between atoms: _66  and  _68
REMARK   23  A    between atoms: _68  and  _69
REMARK   24  A    between atoms: _68  and  _71
REMARK   25  A    between atoms: _71  and  _72
REMARK   26  A    between atoms: _75  and  _77
REMARK   27  A    between atoms: _77  and  _78
REMARK   28  A    between atoms: _77  and  _80
REMARK   29  A    between atoms: _80  and  _81
REMARK   30  A    between atoms: _86  and  _87
REMARK   31  A    between atoms: _89  and  _91
REMARK   32  A    between atoms: _91  and  _92
REMARK   33  A    between atoms: _91  and  _94
REMARK   34  A    between atoms: _94  and  _95
REMARK   35  A    between atoms: _95  and  _96
REMARK   36  A    between atoms: _99  and  _101
REMARK   37  A    between atoms: _101  and  _102
REMARK   38  A    between atoms: _101  and  _104
REMARK   39  A    between atoms: _104  and  _105
REMARK   40  A    between atoms: _111  and  _113
REMARK   41  A    between atoms: _113  and  _114
REMARK   42  A    between atoms: _116  and  _118
REMARK   43  A    between atoms: _118  and  _119
REMARK   44  A    between atoms: _121  and  _123
REMARK   45  A    between atoms: _123  and  _124
REMARK   46  A    between atoms: _126  and  _128
REMARK   47  A    between atoms: _128  and  _129
REMARK   48  A    between atoms: _132  and  _134
REMARK   49  A    between atoms: _134  and  _135
REMARK   50  A    between atoms: _138  and  _140
REMARK   51  A    between atoms: _140  and  _141
REMARK   52  A    between atoms: _144  and  _146
REMARK   53  A    between atoms: _146  and  _147
REMARK   54  A    between atoms: _146  and  _149
REMARK   55  A    between atoms: _149  and  _150
REMARK   56  A    between atoms: _153  and  _155
REMARK   57  A    between atoms: _155  and  _156
REMARK   58  A    between atoms: _155  and  _158
REMARK   59  A    between atoms: _158  and  _159
REMARK   60  A    between atoms: _159  and  _160
REMARK   61  A    between atoms: _160  and  _161
REMARK   62  A    between atoms: _161  and  _162
REMARK   63  A    between atoms: _166  and  _168
REMARK   64  A    between atoms: _168  and  _169
REMARK   65  A    between atoms: _171  and  _173
REMARK   66  A    between atoms: _173  and  _174
REMARK   67  A    between atoms: _173  and  _176
REMARK   68  A    between atoms: _179  and  _181
REMARK   69  A    between atoms: _181  and  _182
REMARK   70  A    between atoms: _184  and  _186
REMARK   71  A    between atoms: _186  and  _187
REMARK   72  A    between atoms: _186  and  _189
REMARK   73  A    between atoms: _189  and  _190
REMARK   74  A    between atoms: _193  and  _195
REMARK   75  A    between atoms: _195  and  _196
REMARK   76  A    between atoms: _195  and  _198
REMARK   77  A    between atoms: _198  and  _199
REMARK   78  A    between atoms: _199  and  _200
REMARK   79  A    between atoms: _200  and  _201
REMARK   80  A    between atoms: _201  and  _202
REMARK   81  A    between atoms: _206  and  _208
REMARK   82  A    between atoms: _208  and  _209
REMARK   83  A    between atoms: _208  and  _211
REMARK   84  A    between atoms: _211  and  _212
REMARK   85  A    between atoms: _212  and  _213
REMARK   86  A    between atoms: _215  and  _217
REMARK   87  A    between atoms: _217  and  _218
REMARK   88  A    between atoms: _217  and  _220
REMARK   89  A    between atoms: _220  and  _221
REMARK   90  A    between atoms: _226  and  _227
REMARK   91  A    between atoms: _229  and  _231
REMARK   92  A    between atoms: _231  and  _232
REMARK   93  A    between atoms: _231  and  _234
REMARK   94  A    between atoms: _234  and  _235
REMARK   95  A    between atoms: _238  and  _240
REMARK   96  A    between atoms: _240  and  _241
REMARK   97  A    between atoms: _240  and  _243
REMARK   98  A    between atoms: _243  and  _244
REMARK   99  A    between atoms: _250  and  _252
REMARK  100  A    between atoms: _252  and  _253
REMARK  101  A    between atoms: _252  and  _255
REMARK  102  A    between atoms: _255  and  _256
REMARK  103  A    between atoms: _261  and  _262
REMARK  104  A    between atoms: _264  and  _266
REMARK  105  A    between atoms: _266  and  _267
REMARK  106  A    between atoms: _269  and  _271
REMARK  107  A    between atoms: _271  and  _272
REMARK  108  A    between atoms: _274  and  _276
REMARK  109  A    between atoms: _276  and  _277
REMARK  110  A    between atoms: _276  and  _279
REMARK  111  A    between atoms: _279  and  _280
REMARK  112  A    between atoms: _290  and  _292
REMARK  113  A    between atoms: _292  and  _293
REMARK  114  A    between atoms: _292  and  _295
REMARK  115  A    between atoms: _295  and  _296
REMARK  116  A    between atoms: _301  and  _303
REMARK  117  A    between atoms: _303  and  _304
REMARK  118  A    between atoms: _303  and  _306
REMARK  119  A    between atoms: _306  and  _307
REMARK  120  A    between atoms: _307  and  _308
REMARK  121  A    between atoms: _313  and  _315
REMARK  122  A    between atoms: _315  and  _316
REMARK  123  A    between atoms: _315  and  _318
REMARK  124  A    between atoms: _318  and  _319
REMARK  125  A    between atoms: _324  and  _325
REMARK  126  A    between atoms: _327  and  _329
REMARK  127  A    between atoms: _329  and  _330
REMARK  128  A    between atoms: _329  and  _332
REMARK  129  A    between atoms: _332  and  _333
REMARK  130  A    between atoms: _338  and  _339
REMARK  131  A    between atoms: _341  and  _343
REMARK  132  A    between atoms: _343  and  _344
REMARK  133  A    between atoms: _343  and  _346
REMARK  134  A    between atoms: _346  and  _347
REMARK  135  A    between atoms: _347  and  _348
REMARK  136  A    between atoms: _348  and  _349
REMARK  137  A    between atoms: _358  and  _360
REMARK  138  A    between atoms: _360  and  _361
REMARK  139  A    between atoms: _360  and  _363
REMARK  140  A    between atoms: _363  and  _364
REMARK  141  A    between atoms: _364  and  _365
REMARK  142  A    between atoms: _365  and  _366
REMARK  143  A    between atoms: _366  and  _367
REMARK  144  A    between atoms: _371  and  _373
REMARK  145  A    between atoms: _373  and  _374
REMARK  146  A    between atoms: _373  and  _376
REMARK  147  A    between atoms: _376  and  _377
REMARK  148  A    between atoms: _377  and  _378
REMARK  149  A    between atoms: _381  and  _383
REMARK  150  A    between atoms: _383  and  _384
REMARK  151  A    between atoms: _383  and  _386
REMARK  152  A    between atoms: _389  and  _391
REMARK  153  A    between atoms: _391  and  _392
REMARK  154  A    between atoms: _391  and  _394
REMARK  155  A    between atoms: _394  and  _395
REMARK                            x       y       z     vdW  Elec       q    Type
REMARK                         _______ _______ _______ _____ _____    ______ ____
ROOT
ATOM      1  O   HOH     1      23.679  -6.071  15.097  0.00  0.00    +0.000 OA
ENDROOT
TORSDOF 0
REMARK  Name = ../refined-set-2016/3arq/3arq_pocket.pdb
REMARK  155 active torsions:
REMARK  status: ('A' for Active; 'I' for Inactive)
REMARK    1  A    between atoms: _1  and  _3
REMARK    2  A    between atoms: _3  and  _4
REMARK    3  A    between atoms: _3  and  _6
REMARK    4  A    between atoms: _6  and  _7
REMARK    5  A    between atoms: _17  and  _19
REMARK    6  A    between atoms: _19  and  _20
REMARK    7  A    between atoms: _19  and  _22
REMARK    8  A    between atoms: _22  and  _23
REMARK    9  A    between atoms: _29  and  _31
REMARK   10  A    between atoms: _31  and  _32
REMARK   11  A    between atoms: _31  and  _34
REMARK   12  A    between atoms: _34  and  _35
REMARK   13  A    between atoms: _37  and  _39
REMARK   14  A    between atoms: _39  and  _40
REMARK   15  A    between atoms: _39  and  _42
REMARK   16  A    between atoms: _45  and  _47
REMARK   17  A    between atoms: _47  and  _48
REMARK   18  A    between atoms: _50  and  _52
REMARK   19  A    between atoms: _52  and  _53
REMARK   20  A    between atoms: _52  and  _55
REMARK   21  A    between atoms: _55  and  _56
REMARK   22  A    between atoms: _66  and  _68
REMARK   23  A    between atoms: _68  and  _69
REMARK   24  A    between atoms: _68  and  _71
REMARK   25  A    between atoms: _71  and  _72
REMARK   26  A    between atoms: _75  and  _77
REMARK   27  A    between atoms: _77  and  _78
REMARK   28  A    between atoms: _77  and  _80
REMARK   29  A    between atoms: _80  and  _81
REMARK   30  A    between atoms: _86  and  _87
REMARK   31  A    between atoms: _89  and  _91
REMARK   32  A    between atoms: _91  and  _92
REMARK   33  A    between atoms: _91  and  _94
REMARK   34  A    between atoms: _94  and  _95
REMARK   35  A    between atoms: _95  and  _96
REMARK   36  A    between atoms: _99  and  _101
REMARK   37  A    between atoms: _101  and  _102
REMARK   38  A    between atoms: _101  and  _104
REMARK   39  A    between atoms: _104  and  _105
REMARK   40  A    between atoms: _111  and  _113
REMARK   41  A    between atoms: _113  and  _114
REMARK   42  A    between atoms: _116  and  _118
REMARK   43  A    between atoms: _118  and  _119
REMARK   44  A    between atoms: _121  and  _123
REMARK   45  A    between atoms: _123  and  _124
REMARK   46  A    between atoms: _126  and  _128
REMARK   47  A    between atoms: _128  and  _129
REMARK   48  A    between atoms: _132  and  _134
REMARK   49  A    between atoms: _134  and  _135
REMARK   50  A    between atoms: _138  and  _140
REMARK   51  A    between atoms: _140  and  _141
REMARK   52  A    between atoms: _144  and  _146
REMARK   53  A    between atoms: _146  and  _147
REMARK   54  A    between atoms: _146  and  _149
REMARK   55  A    between atoms: _149  and  _150
REMARK   56  A    between atoms: _153  and  _155
REMARK   57  A    between atoms: _155  and  _156
REMARK   58  A    between atoms: _155  and  _158
REMARK   59  A    between atoms: _158  and  _159
REMARK   60  A    between atoms: _159  and  _160
REMARK   61  A    between atoms: _160  and  _161
REMARK   62  A    between atoms: _161  and  _162
REMARK   63  A    between atoms: _166  and  _168
REMARK   64  A    between atoms: _168  and  _169
REMARK   65  A    between atoms: _171  and  _173
REMARK   66  A    between atoms: _173  and  _174
REMARK   67  A    between atoms: _173  and  _176
REMARK   68  A    between atoms: _179  and  _181
REMARK   69  A    between atoms: _181  and  _182
REMARK   70  A    between atoms: _184  and  _186
REMARK   71  A    between atoms: _186  and  _187
REMARK   72  A    between atoms: _186  and  _189
REMARK   73  A    between atoms: _189  and  _190
REMARK   74  A    between atoms: _193  and  _195
REMARK   75  A    between atoms: _195  and  _196
REMARK   76  A    between atoms: _195  and  _198
REMARK   77  A    between atoms: _198  and  _199
REMARK   78  A    between atoms: _199  and  _200
REMARK   79  A    between atoms: _200  and  _201
REMARK   80  A    between atoms: _201  and  _202
REMARK   81  A    between atoms: _206  and  _208
REMARK   82  A    between atoms: _208  and  _209
REMARK   83  A    between atoms: _208  and  _211
REMARK   84  A    between atoms: _211  and  _212
REMARK   85  A    between atoms: _212  and  _213
REMARK   86  A    between atoms: _215  and  _217
REMARK   87  A    between atoms: _217  and  _218
REMARK   88  A    between atoms: _217  and  _220
REMARK   89  A    between atoms: _220  and  _221
REMARK   90  A    between atoms: _226  and  _227
REMARK   91  A    between atoms: _229  and  _231
REMARK   92  A    between atoms: _231  and  _232
REMARK   93  A    between atoms: _231  and  _234
REMARK   94  A    between atoms: _234  and  _235
REMARK   95  A    between atoms: _238  and  _240
REMARK   96  A    between atoms: _240  and  _241
REMARK   97  A    between atoms: _240  and  _243
REMARK   98  A    between atoms: _243  and  _244
REMARK   99  A    between atoms: _250  and  _252
REMARK  100  A    between atoms: _252  and  _253
REMARK  101  A    between atoms: _252  and  _255
REMARK  102  A    between atoms: _255  and  _256
REMARK  103  A    between atoms: _261  and  _262
REMARK  104  A    between atoms: _264  and  _266
REMARK  105  A    between atoms: _266  and  _267
REMARK  106  A    between atoms: _269  and  _271
REMARK  107  A    between atoms: _271  and  _272
REMARK  108  A    between atoms: _274  and  _276
REMARK  109  A    between atoms: _276  and  _277
REMARK  110  A    between atoms: _276  and  _279
REMARK  111  A    between atoms: _279  and  _280
REMARK  112  A    between atoms: _290  and  _292
REMARK  113  A    between atoms: _292  and  _293
REMARK  114  A    between atoms: _292  and  _295
REMARK  115  A    between atoms: _295  and  _296
REMARK  116  A    between atoms: _301  and  _303
REMARK  117  A    between atoms: _303  and  _304
REMARK  118  A    between atoms: _303  and  _306
REMARK  119  A    between atoms: _306  and  _307
REMARK  120  A    between atoms: _307  and  _308
REMARK  121  A    between atoms: _313  and  _315
REMARK  122  A    between atoms: _315  and  _316
REMARK  123  A    between atoms: _315  and  _318
REMARK  124  A    between atoms: _318  and  _319
REMARK  125  A    between atoms: _324  and  _325
REMARK  126  A    between atoms: _327  and  _329
REMARK  127  A    between atoms: _329  and  _330
REMARK  128  A    between atoms: _329  and  _332
REMARK  129  A    between atoms: _332  and  _333
REMARK  130  A    between atoms: _338  and  _339
REMARK  131  A    between atoms: _341  and  _343
REMARK  132  A    between atoms: _343  and  _344
REMARK  133  A    between atoms: _343  and  _346
REMARK  134  A    between atoms: _346  and  _347
REMARK  135  A    between atoms: _347  and  _348
REMARK  136  A    between atoms: _348  and  _349
REMARK  137  A    between atoms: _358  and  _360
REMARK  138  A    between atoms: _360  and  _361
REMARK  139  A    between atoms: _360  and  _363
REMARK  140  A    between atoms: _363  and  _364
REMARK  141  A    between atoms: _364  and  _365
REMARK  142  A    between atoms: _365  and  _366
REMARK  143  A    between atoms: _366  and  _367
REMARK  144  A    between atoms: _371  and  _373
REMARK  145  A    between atoms: _373  and  _374
REMARK  146  A    between atoms: _373  and  _376
REMARK  147  A    between atoms: _376  and  _377
REMARK  148  A    between atoms: _377  and  _378
REMARK  149  A    between atoms: _381  and  _383
REMARK  150  A    between atoms: _383  and  _384
REMARK  151  A    between atoms: _383  and  _386
REMARK  152  A    between atoms: _389  and  _391
REMARK  153  A    between atoms: _391  and  _392
REMARK  154  A    between atoms: _391  and  _394
REMARK  155  A    between atoms: _394  and  _395
REMARK                            x       y       z     vdW  Elec       q    Type
REMARK                         _______ _______ _______ _____ _____    ______ ____
ROOT
ATOM      1  O   HOH     1      14.482 -15.728  26.027  0.00  0.00    +0.000 OA
ENDROOT
TORSDOF 0
REMARK  Name = ../refined-set-2016/3arq/3arq_pocket.pdb
REMARK  155 active torsions:
REMARK  status: ('A' for Active; 'I' for Inactive)
REMARK    1  A    between atoms: _1  and  _3
REMARK    2  A    between atoms: _3  and  _4
REMARK    3  A    between atoms: _3  and  _6
REMARK    4  A    between atoms: _6  and  _7
REMARK    5  A    between atoms: _17  and  _19
REMARK    6  A    between atoms: _19  and  _20
REMARK    7  A    between atoms: _19  and  _22
REMARK    8  A    between atoms: _22  and  _23
REMARK    9  A    between atoms: _29  and  _31
REMARK   10  A    between atoms: _31  and  _32
REMARK   11  A    between atoms: _31  and  _34
REMARK   12  A    between atoms: _34  and  _35
REMARK   13  A    between atoms: _37  and  _39
REMARK   14  A    between atoms: _39  and  _40
REMARK   15  A    between atoms: _39  and  _42
REMARK   16  A    between atoms: _45  and  _47
REMARK   17  A    between atoms: _47  and  _48
REMARK   18  A    between atoms: _50  and  _52
REMARK   19  A    between atoms: _52  and  _53
REMARK   20  A    between atoms: _52  and  _55
REMARK   21  A    between atoms: _55  and  _56
REMARK   22  A    between atoms: _66  and  _68
REMARK   23  A    between atoms: _68  and  _69
REMARK   24  A    between atoms: _68  and  _71
REMARK   25  A    between atoms: _71  and  _72
REMARK   26  A    between atoms: _75  and  _77
REMARK   27  A    between atoms: _77  and  _78
REMARK   28  A    between atoms: _77  and  _80
REMARK   29  A    between atoms: _80  and  _81
REMARK   30  A    between atoms: _86  and  _87
REMARK   31  A    between atoms: _89  and  _91
REMARK   32  A    between atoms: _91  and  _92
REMARK   33  A    between atoms: _91  and  _94
REMARK   34  A    between atoms: _94  and  _95
REMARK   35  A    between atoms: _95  and  _96
REMARK   36  A    between atoms: _99  and  _101
REMARK   37  A    between atoms: _101  and  _102
REMARK   38  A    between atoms: _101  and  _104
REMARK   39  A    between atoms: _104  and  _105
REMARK   40  A    between atoms: _111  and  _113
REMARK   41  A    between atoms: _113  and  _114
REMARK   42  A    between atoms: _116  and  _118
REMARK   43  A    between atoms: _118  and  _119
REMARK   44  A    between atoms: _121  and  _123
REMARK   45  A    between atoms: _123  and  _124
REMARK   46  A    between atoms: _126  and  _128
REMARK   47  A    between atoms: _128  and  _129
REMARK   48  A    between atoms: _132  and  _134
REMARK   49  A    between atoms: _134  and  _135
REMARK   50  A    between atoms: _138  and  _140
REMARK   51  A    between atoms: _140  and  _141
REMARK   52  A    between atoms: _144  and  _146
REMARK   53  A    between atoms: _146  and  _147
REMARK   54  A    between atoms: _146  and  _149
REMARK   55  A    between atoms: _149  and  _150
REMARK   56  A    between atoms: _153  and  _155
REMARK   57  A    between atoms: _155  and  _156
REMARK   58  A    between atoms: _155  and  _158
REMARK   59  A    between atoms: _158  and  _159
REMARK   60  A    between atoms: _159  and  _160
REMARK   61  A    between atoms: _160  and  _161
REMARK   62  A    between atoms: _161  and  _162
REMARK   63  A    between atoms: _166  and  _168
REMARK   64  A    between atoms: _168  and  _169
REMARK   65  A    between atoms: _171  and  _173
REMARK   66  A    between atoms: _173  and  _174
REMARK   67  A    between atoms: _173  and  _176
REMARK   68  A    between atoms: _179  and  _181
REMARK   69  A    between atoms: _181  and  _182
REMARK   70  A    between atoms: _184  and  _186
REMARK   71  A    between atoms: _186  and  _187
REMARK   72  A    between atoms: _186  and  _189
REMARK   73  A    between atoms: _189  and  _190
REMARK   74  A    between atoms: _193  and  _195
REMARK   75  A    between atoms: _195  and  _196
REMARK   76  A    between atoms: _195  and  _198
REMARK   77  A    between atoms: _198  and  _199
REMARK   78  A    between atoms: _199  and  _200
REMARK   79  A    between atoms: _200  and  _201
REMARK   80  A    between atoms: _201  and  _202
REMARK   81  A    between atoms: _206  and  _208
REMARK   82  A    between atoms: _208  and  _209
REMARK   83  A    between atoms: _208  and  _211
REMARK   84  A    between atoms: _211  and  _212
REMARK   85  A    between atoms: _212  and  _213
REMARK   86  A    between atoms: _215  and  _217
REMARK   87  A    between atoms: _217  and  _218
REMARK   88  A    between atoms: _217  and  _220
REMARK   89  A    between atoms: _220  and  _221
REMARK   90  A    between atoms: _226  and  _227
REMARK   91  A    between atoms: _229  and  _231
REMARK   92  A    between atoms: _231  and  _232
REMARK   93  A    between atoms: _231  and  _234
REMARK   94  A    between atoms: _234  and  _235
REMARK   95  A    between atoms: _238  and  _240
REMARK   96  A    between atoms: _240  and  _241
REMARK   97  A    between atoms: _240  and  _243
REMARK   98  A    between atoms: _243  and  _244
REMARK   99  A    between atoms: _250  and  _252
REMARK  100  A    between atoms: _252  and  _253
REMARK  101  A    between atoms: _252  and  _255
REMARK  102  A    between atoms: _255  and  _256
REMARK  103  A    between atoms: _261  and  _262
REMARK  104  A    between atoms: _264  and  _266
REMARK  105  A    between atoms: _266  and  _267
REMARK  106  A    between atoms: _269  and  _271
REMARK  107  A    between atoms: _271  and  _272
REMARK  108  A    between atoms: _274  and  _276
REMARK  109  A    between atoms: _276  and  _277
REMARK  110  A    between atoms: _276  and  _279
REMARK  111  A    between atoms: _279  and  _280
REMARK  112  A    between atoms: _290  and  _292
REMARK  113  A    between atoms: _292  and  _293
REMARK  114  A    between atoms: _292  and  _295
REMARK  115  A    between atoms: _295  and  _296
REMARK  116  A    between atoms: _301  and  _303
REMARK  117  A    between atoms: _303  and  _304
REMARK  118  A    between atoms: _303  and  _306
REMARK  119  A    between atoms: _306  and  _307
REMARK  120  A    between atoms: _307  and  _308
REMARK  121  A    between atoms: _313  and  _315
REMARK  122  A    between atoms: _315  and  _316
REMARK  123  A    between atoms: _315  and  _318
REMARK  124  A    between atoms: _318  and  _319
REMARK  125  A    between atoms: _324  and  _325
REMARK  126  A    between atoms: _327  and  _329
REMARK  127  A    between atoms: _329  and  _330
REMARK  128  A    between atoms: _329  and  _332
REMARK  129  A    between atoms: _332  and  _333
REMARK  130  A    between atoms: _338  and  _339
REMARK  131  A    between atoms: _341  and  _343
REMARK  132  A    between atoms: _343  and  _344
REMARK  133  A    between atoms: _343  and  _346
REMARK  134  A    between atoms: _346  and  _347
REMARK  135  A    between atoms: _347  and  _348
REMARK  136  A    between atoms: _348  and  _349
REMARK  137  A    between atoms: _358  and  _360
REMARK  138  A    between atoms: _360  and  _361
REMARK  139  A    between atoms: _360  and  _363
REMARK  140  A    between atoms: _363  and  _364
REMARK  141  A    between atoms: _364  and  _365
REMARK  142  A    between atoms: _365  and  _366
REMARK  143  A    between atoms: _366  and  _367
REMARK  144  A    between atoms: _371  and  _373
REMARK  145  A    between atoms: _373  and  _374
REMARK  146  A    between atoms: _373  and  _376
REMARK  147  A    between atoms: _376  and  _377
REMARK  148  A    between atoms: _377  and  _378
REMARK  149  A    between atoms: _381  and  _383
REMARK  150  A    between atoms: _383  and  _384
REMARK  151  A    between atoms: _383  and  _386
REMARK  152  A    between atoms: _389  and  _391
REMARK  153  A    between atoms: _391  and  _392
REMARK  154  A    between atoms: _391  and  _394
REMARK  155  A    between atoms: _394  and  _395
REMARK                            x       y       z     vdW  Elec       q    Type
REMARK                         _______ _______ _______ _____ _____    ______ ____
ROOT
ATOM      1  O   HOH     1      20.014  -2.562  22.715  0.00  0.00    +0.000 OA
ENDROOT
TORSDOF 0
REMARK  Name = ../refined-set-2016/3arq/3arq_pocket.pdb
REMARK  155 active torsions:
REMARK  status: ('A' for Active; 'I' for Inactive)
REMARK    1  A    between atoms: _1  and  _3
REMARK    2  A    between atoms: _3  and  _4
REMARK    3  A    between atoms: _3  and  _6
REMARK    4  A    between atoms: _6  and  _7
REMARK    5  A    between atoms: _17  and  _19
REMARK    6  A    between atoms: _19  and  _20
REMARK    7  A    between atoms: _19  and  _22
REMARK    8  A    between atoms: _22  and  _23
REMARK    9  A    between atoms: _29  and  _31
REMARK   10  A    between atoms: _31  and  _32
REMARK   11  A    between atoms: _31  and  _34
REMARK   12  A    between atoms: _34  and  _35
REMARK   13  A    between atoms: _37  and  _39
REMARK   14  A    between atoms: _39  and  _40
REMARK   15  A    between atoms: _39  and  _42
REMARK   16  A    between atoms: _45  and  _47
REMARK   17  A    between atoms: _47  and  _48
REMARK   18  A    between atoms: _50  and  _52
REMARK   19  A    between atoms: _52  and  _53
REMARK   20  A    between atoms: _52  and  _55
REMARK   21  A    between atoms: _55  and  _56
REMARK   22  A    between atoms: _66  and  _68
REMARK   23  A    between atoms: _68  and  _69
REMARK   24  A    between atoms: _68  and  _71
REMARK   25  A    between atoms: _71  and  _72
REMARK   26  A    between atoms: _75  and  _77
REMARK   27  A    between atoms: _77  and  _78
REMARK   28  A    between atoms: _77  and  _80
REMARK   29  A    between atoms: _80  and  _81
REMARK   30  A    between atoms: _86  and  _87
REMARK   31  A    between atoms: _89  and  _91
REMARK   32  A    between atoms: _91  and  _92
REMARK   33  A    between atoms: _91  and  _94
REMARK   34  A    between atoms: _94  and  _95
REMARK   35  A    between atoms: _95  and  _96
REMARK   36  A    between atoms: _99  and  _101
REMARK   37  A    between atoms: _101  and  _102
REMARK   38  A    between atoms: _101  and  _104
REMARK   39  A    between atoms: _104  and  _105
REMARK   40  A    between atoms: _111  and  _113
REMARK   41  A    between atoms: _113  and  _114
REMARK   42  A    between atoms: _116  and  _118
REMARK   43  A    between atoms: _118  and  _119
REMARK   44  A    between atoms: _121  and  _123
REMARK   45  A    between atoms: _123  and  _124
REMARK   46  A    between atoms: _126  and  _128
REMARK   47  A    between atoms: _128  and  _129
REMARK   48  A    between atoms: _132  and  _134
REMARK   49  A    between atoms: _134  and  _135
REMARK   50  A    between atoms: _138  and  _140
REMARK   51  A    between atoms: _140  and  _141
REMARK   52  A    between atoms: _144  and  _146
REMARK   53  A    between atoms: _146  and  _147
REMARK   54  A    between atoms: _146  and  _149
REMARK   55  A    between atoms: _149  and  _150
REMARK   56  A    between atoms: _153  and  _155
REMARK   57  A    between atoms: _155  and  _156
REMARK   58  A    between atoms: _155  and  _158
REMARK   59  A    between atoms: _158  and  _159
REMARK   60  A    between atoms: _159  and  _160
REMARK   61  A    between atoms: _160  and  _161
REMARK   62  A    between atoms: _161  and  _162
REMARK   63  A    between atoms: _166  and  _168
REMARK   64  A    between atoms: _168  and  _169
REMARK   65  A    between atoms: _171  and  _173
REMARK   66  A    between atoms: _173  and  _174
REMARK   67  A    between atoms: _173  and  _176
REMARK   68  A    between atoms: _179  and  _181
REMARK   69  A    between atoms: _181  and  _182
REMARK   70  A    between atoms: _184  and  _186
REMARK   71  A    between atoms: _186  and  _187
REMARK   72  A    between atoms: _186  and  _189
REMARK   73  A    between atoms: _189  and  _190
REMARK   74  A    between atoms: _193  and  _195
REMARK   75  A    between atoms: _195  and  _196
REMARK   76  A    between atoms: _195  and  _198
REMARK   77  A    between atoms: _198  and  _199
REMARK   78  A    between atoms: _199  and  _200
REMARK   79  A    between atoms: _200  and  _201
REMARK   80  A    between atoms: _201  and  _202
REMARK   81  A    between atoms: _206  and  _208
REMARK   82  A    between atoms: _208  and  _209
REMARK   83  A    between atoms: _208  and  _211
REMARK   84  A    between atoms: _211  and  _212
REMARK   85  A    between atoms: _212  and  _213
REMARK   86  A    between atoms: _215  and  _217
REMARK   87  A    between atoms: _217  and  _218
REMARK   88  A    between atoms: _217  and  _220
REMARK   89  A    between atoms: _220  and  _221
REMARK   90  A    between atoms: _226  and  _227
REMARK   91  A    between atoms: _229  and  _231
REMARK   92  A    between atoms: _231  and  _232
REMARK   93  A    between atoms: _231  and  _234
REMARK   94  A    between atoms: _234  and  _235
REMARK   95  A    between atoms: _238  and  _240
REMARK   96  A    between atoms: _240  and  _241
REMARK   97  A    between atoms: _240  and  _243
REMARK   98  A    between atoms: _243  and  _244
REMARK   99  A    between atoms: _250  and  _252
REMARK  100  A    between atoms: _252  and  _253
REMARK  101  A    between atoms: _252  and  _255
REMARK  102  A    between atoms: _255  and  _256
REMARK  103  A    between atoms: _261  and  _262
REMARK  104  A    between atoms: _264  and  _266
REMARK  105  A    between atoms: _266  and  _267
REMARK  106  A    between atoms: _269  and  _271
REMARK  107  A    between atoms: _271  and  _272
REMARK  108  A    between atoms: _274  and  _276
REMARK  109  A    between atoms: _276  and  _277
REMARK  110  A    between atoms: _276  and  _279
REMARK  111  A    between atoms: _279  and  _280
REMARK  112  A    between atoms: _290  and  _292
REMARK  113  A    between atoms: _292  and  _293
REMARK  114  A    between atoms: _292  and  _295
REMARK  115  A    between atoms: _295  and  _296
REMARK  116  A    between atoms: _301  and  _303
REMARK  117  A    between atoms: _303  and  _304
REMARK  118  A    between atoms: _303  and  _306
REMARK  119  A    between atoms: _306  and  _307
REMARK  120  A    between atoms: _307  and  _308
REMARK  121  A    between atoms: _313  and  _315
REMARK  122  A    between atoms: _315  and  _316
REMARK  123  A    between atoms: _315  and  _318
REMARK  124  A    between atoms: _318  and  _319
REMARK  125  A    between atoms: _324  and  _325
REMARK  126  A    between atoms: _327  and  _329
REMARK  127  A    between atoms: _329  and  _330
REMARK  128  A    between atoms: _329  and  _332
REMARK  129  A    between atoms: _332  and  _333
REMARK  130  A    between atoms: _338  and  _339
REMARK  131  A    between atoms: _341  and  _343
REMARK  132  A    between atoms: _343  and  _344
REMARK  133  A    between atoms: _343  and  _346
REMARK  134  A    between atoms: _346  and  _347
REMARK  135  A    between atoms: _347  and  _348
REMARK  136  A    between atoms: _348  and  _349
REMARK  137  A    between atoms: _358  and  _360
REMARK  138  A    between atoms: _360  and  _361
REMARK  139  A    between atoms: _360  and  _363
REMARK  140  A    between atoms: _363  and  _364
REMARK  141  A    between atoms: _364  and  _365
REMARK  142  A    between atoms: _365  and  _366
REMARK  143  A    between atoms: _366  and  _367
REMARK  144  A    between atoms: _371  and  _373
REMARK  145  A    between atoms: _373  and  _374
REMARK  146  A    between atoms: _373  and  _376
REMARK  147  A    between atoms: _376  and  _377
REMARK  148  A    between atoms: _377  and  _378
REMARK  149  A    between atoms: _381  and  _383
REMARK  150  A    between atoms: _383  and  _384
REMARK  151  A    between atoms: _383  and  _386
REMARK  152  A    between atoms: _389  and  _391
REMARK  153  A    between atoms: _391  and  _392
REMARK  154  A    between atoms: _391  and  _394
REMARK  155  A    between atoms: _394  and  _395
REMARK                            x       y       z     vdW  Elec       q    Type
REMARK                         _______ _______ _______ _____ _____    ______ ____
ROOT
ATOM      1  O   HOH     1      20.399 -21.124  17.562  0.00  0.00    +0.000 OA
ENDROOT
TORSDOF 0
REMARK  Name = ../refined-set-2016/3arq/3arq_pocket.pdb
REMARK  155 active torsions:
REMARK  status: ('A' for Active; 'I' for Inactive)
REMARK    1  A    between atoms: _1  and  _3
REMARK    2  A    between atoms: _3  and  _4
REMARK    3  A    between atoms: _3  and  _6
REMARK    4  A    between atoms: _6  and  _7
REMARK    5  A    between atoms: _17  and  _19
REMARK    6  A    between atoms: _19  and  _20
REMARK    7  A    between atoms: _19  and  _22
REMARK    8  A    between atoms: _22  and  _23
REMARK    9  A    between atoms: _29  and  _31
REMARK   10  A    between atoms: _31  and  _32
REMARK   11  A    between atoms: _31  and  _34
REMARK   12  A    between atoms: _34  and  _35
REMARK   13  A    between atoms: _37  and  _39
REMARK   14  A    between atoms: _39  and  _40
REMARK   15  A    between atoms: _39  and  _42
REMARK   16  A    between atoms: _45  and  _47
REMARK   17  A    between atoms: _47  and  _48
REMARK   18  A    between atoms: _50  and  _52
REMARK   19  A    between atoms: _52  and  _53
REMARK   20  A    between atoms: _52  and  _55
REMARK   21  A    between atoms: _55  and  _56
REMARK   22  A    between atoms: _66  and  _68
REMARK   23  A    between atoms: _68  and  _69
REMARK   24  A    between atoms: _68  and  _71
REMARK   25  A    between atoms: _71  and  _72
REMARK   26  A    between atoms: _75  and  _77
REMARK   27  A    between atoms: _77  and  _78
REMARK   28  A    between atoms: _77  and  _80
REMARK   29  A    between atoms: _80  and  _81
REMARK   30  A    between atoms: _86  and  _87
REMARK   31  A    between atoms: _89  and  _91
REMARK   32  A    between atoms: _91  and  _92
REMARK   33  A    between atoms: _91  and  _94
REMARK   34  A    between atoms: _94  and  _95
REMARK   35  A    between atoms: _95  and  _96
REMARK   36  A    between atoms: _99  and  _101
REMARK   37  A    between atoms: _101  and  _102
REMARK   38  A    between atoms: _101  and  _104
REMARK   39  A    between atoms: _104  and  _105
REMARK   40  A    between atoms: _111  and  _113
REMARK   41  A    between atoms: _113  and  _114
REMARK   42  A    between atoms: _116  and  _118
REMARK   43  A    between atoms: _118  and  _119
REMARK   44  A    between atoms: _121  and  _123
REMARK   45  A    between atoms: _123  and  _124
REMARK   46  A    between atoms: _126  and  _128
REMARK   47  A    between atoms: _128  and  _129
REMARK   48  A    between atoms: _132  and  _134
REMARK   49  A    between atoms: _134  and  _135
REMARK   50  A    between atoms: _138  and  _140
REMARK   51  A    between atoms: _140  and  _141
REMARK   52  A    between atoms: _144  and  _146
REMARK   53  A    between atoms: _146  and  _147
REMARK   54  A    between atoms: _146  and  _149
REMARK   55  A    between atoms: _149  and  _150
REMARK   56  A    between atoms: _153  and  _155
REMARK   57  A    between atoms: _155  and  _156
REMARK   58  A    between atoms: _155  and  _158
REMARK   59  A    between atoms: _158  and  _159
REMARK   60  A    between atoms: _159  and  _160
REMARK   61  A    between atoms: _160  and  _161
REMARK   62  A    between atoms: _161  and  _162
REMARK   63  A    between atoms: _166  and  _168
REMARK   64  A    between atoms: _168  and  _169
REMARK   65  A    between atoms: _171  and  _173
REMARK   66  A    between atoms: _173  and  _174
REMARK   67  A    between atoms: _173  and  _176
REMARK   68  A    between atoms: _179  and  _181
REMARK   69  A    between atoms: _181  and  _182
REMARK   70  A    between atoms: _184  and  _186
REMARK   71  A    between atoms: _186  and  _187
REMARK   72  A    between atoms: _186  and  _189
REMARK   73  A    between atoms: _189  and  _190
REMARK   74  A    between atoms: _193  and  _195
REMARK   75  A    between atoms: _195  and  _196
REMARK   76  A    between atoms: _195  and  _198
REMARK   77  A    between atoms: _198  and  _199
REMARK   78  A    between atoms: _199  and  _200
REMARK   79  A    between atoms: _200  and  _201
REMARK   80  A    between atoms: _201  and  _202
REMARK   81  A    between atoms: _206  and  _208
REMARK   82  A    between atoms: _208  and  _209
REMARK   83  A    between atoms: _208  and  _211
REMARK   84  A    between atoms: _211  and  _212
REMARK   85  A    between atoms: _212  and  _213
REMARK   86  A    between atoms: _215  and  _217
REMARK   87  A    between atoms: _217  and  _218
REMARK   88  A    between atoms: _217  and  _220
REMARK   89  A    between atoms: _220  and  _221
REMARK   90  A    between atoms: _226  and  _227
REMARK   91  A    between atoms: _229  and  _231
REMARK   92  A    between atoms: _231  and  _232
REMARK   93  A    between atoms: _231  and  _234
REMARK   94  A    between atoms: _234  and  _235
REMARK   95  A    between atoms: _238  and  _240
REMARK   96  A    between atoms: _240  and  _241
REMARK   97  A    between atoms: _240  and  _243
REMARK   98  A    between atoms: _243  and  _244
REMARK   99  A    between atoms: _250  and  _252
REMARK  100  A    between atoms: _252  and  _253
REMARK  101  A    between atoms: _252  and  _255
REMARK  102  A    between atoms: _255  and  _256
REMARK  103  A    between atoms: _261  and  _262
REMARK  104  A    between atoms: _264  and  _266
REMARK  105  A    between atoms: _266  and  _267
REMARK  106  A    between atoms: _269  and  _271
REMARK  107  A    between atoms: _271  and  _272
REMARK  108  A    between atoms: _274  and  _276
REMARK  109  A    between atoms: _276  and  _277
REMARK  110  A    between atoms: _276  and  _279
REMARK  111  A    between atoms: _279  and  _280
REMARK  112  A    between atoms: _290  and  _292
REMARK  113  A    between atoms: _292  and  _293
REMARK  114  A    between atoms: _292  and  _295
REMARK  115  A    between atoms: _295  and  _296
REMARK  116  A    between atoms: _301  and  _303
REMARK  117  A    between atoms: _303  and  _304
REMARK  118  A    between atoms: _303  and  _306
REMARK  119  A    between atoms: _306  and  _307
REMARK  120  A    between atoms: _307  and  _308
REMARK  121  A    between atoms: _313  and  _315
REMARK  122  A    between atoms: _315  and  _316
REMARK  123  A    between atoms: _315  and  _318
REMARK  124  A    between atoms: _318  and  _319
REMARK  125  A    between atoms: _324  and  _325
REMARK  126  A    between atoms: _327  and  _329
REMARK  127  A    between atoms: _329  and  _330
REMARK  128  A    between atoms: _329  and  _332
REMARK  129  A    between atoms: _332  and  _333
REMARK  130  A    between atoms: _338  and  _339
REMARK  131  A    between atoms: _341  and  _343
REMARK  132  A    between atoms: _343  and  _344
REMARK  133  A    between atoms: _343  and  _346
REMARK  134  A    between atoms: _346  and  _347
REMARK  135  A    between atoms: _347  and  _348
REMARK  136  A    between atoms: _348  and  _349
REMARK  137  A    between atoms: _358  and  _360
REMARK  138  A    between atoms: _360  and  _361
REMARK  139  A    between atoms: _360  and  _363
REMARK  140  A    between atoms: _363  and  _364
REMARK  141  A    between atoms: _364  and  _365
REMARK  142  A    between atoms: _365  and  _366
REMARK  143  A    between atoms: _366  and  _367
REMARK  144  A    between atoms: _371  and  _373
REMARK  145  A    between atoms: _373  and  _374
REMARK  146  A    between atoms: _373  and  _376
REMARK  147  A    between atoms: _376  and  _377
REMARK  148  A    between atoms: _377  and  _378
REMARK  149  A    between atoms: _381  and  _383
REMARK  150  A    between atoms: _383  and  _384
REMARK  151  A    between atoms: _383  and  _386
REMARK  152  A    between atoms: _389  and  _391
REMARK  153  A    between atoms: _391  and  _392
REMARK  154  A    between atoms: _391  and  _394
REMARK  155  A    between atoms: _394  and  _395
REMARK                            x       y       z     vdW  Elec       q    Type
REMARK                         _______ _______ _______ _____ _____    ______ ____
ROOT
ATOM      1  O   HOH     1      22.513 -11.868   8.983  0.00  0.00    +0.000 OA
ENDROOT
TORSDOF 0
REMARK  Name = ../refined-set-2016/3arq/3arq_pocket.pdb
REMARK  155 active torsions:
REMARK  status: ('A' for Active; 'I' for Inactive)
REMARK    1  A    between atoms: _1  and  _3
REMARK    2  A    between atoms: _3  and  _4
REMARK    3  A    between atoms: _3  and  _6
REMARK    4  A    between atoms: _6  and  _7
REMARK    5  A    between atoms: _17  and  _19
REMARK    6  A    between atoms: _19  and  _20
REMARK    7  A    between atoms: _19  and  _22
REMARK    8  A    between atoms: _22  and  _23
REMARK    9  A    between atoms: _29  and  _31
REMARK   10  A    between atoms: _31  and  _32
REMARK   11  A    between atoms: _31  and  _34
REMARK   12  A    between atoms: _34  and  _35
REMARK   13  A    between atoms: _37  and  _39
REMARK   14  A    between atoms: _39  and  _40
REMARK   15  A    between atoms: _39  and  _42
REMARK   16  A    between atoms: _45  and  _47
REMARK   17  A    between atoms: _47  and  _48
REMARK   18  A    between atoms: _50  and  _52
REMARK   19  A    between atoms: _52  and  _53
REMARK   20  A    between atoms: _52  and  _55
REMARK   21  A    between atoms: _55  and  _56
REMARK   22  A    between atoms: _66  and  _68
REMARK   23  A    between atoms: _68  and  _69
REMARK   24  A    between atoms: _68  and  _71
REMARK   25  A    between atoms: _71  and  _72
REMARK   26  A    between atoms: _75  and  _77
REMARK   27  A    between atoms: _77  and  _78
REMARK   28  A    between atoms: _77  and  _80
REMARK   29  A    between atoms: _80  and  _81
REMARK   30  A    between atoms: _86  and  _87
REMARK   31  A    between atoms: _89  and  _91
REMARK   32  A    between atoms: _91  and  _92
REMARK   33  A    between atoms: _91  and  _94
REMARK   34  A    between atoms: _94  and  _95
REMARK   35  A    between atoms: _95  and  _96
REMARK   36  A    between atoms: _99  and  _101
REMARK   37  A    between atoms: _101  and  _102
REMARK   38  A    between atoms: _101  and  _104
REMARK   39  A    between atoms: _104  and  _105
REMARK   40  A    between atoms: _111  and  _113
REMARK   41  A    between atoms: _113  and  _114
REMARK   42  A    between atoms: _116  and  _118
REMARK   43  A    between atoms: _118  and  _119
REMARK   44  A    between atoms: _121  and  _123
REMARK   45  A    between atoms: _123  and  _124
REMARK   46  A    between atoms: _126  and  _128
REMARK   47  A    between atoms: _128  and  _129
REMARK   48  A    between atoms: _132  and  _134
REMARK   49  A    between atoms: _134  and  _135
REMARK   50  A    between atoms: _138  and  _140
REMARK   51  A    between atoms: _140  and  _141
REMARK   52  A    between atoms: _144  and  _146
REMARK   53  A    between atoms: _146  and  _147
REMARK   54  A    between atoms: _146  and  _149
REMARK   55  A    between atoms: _149  and  _150
REMARK   56  A    between atoms: _153  and  _155
REMARK   57  A    between atoms: _155  and  _156
REMARK   58  A    between atoms: _155  and  _158
REMARK   59  A    between atoms: _158  and  _159
REMARK   60  A    between atoms: _159  and  _160
REMARK   61  A    between atoms: _160  and  _161
REMARK   62  A    between atoms: _161  and  _162
REMARK   63  A    between atoms: _166  and  _168
REMARK   64  A    between atoms: _168  and  _169
REMARK   65  A    between atoms: _171  and  _173
REMARK   66  A    between atoms: _173  and  _174
REMARK   67  A    between atoms: _173  and  _176
REMARK   68  A    between atoms: _179  and  _181
REMARK   69  A    between atoms: _181  and  _182
REMARK   70  A    between atoms: _184  and  _186
REMARK   71  A    between atoms: _186  and  _187
REMARK   72  A    between atoms: _186  and  _189
REMARK   73  A    between atoms: _189  and  _190
REMARK   74  A    between atoms: _193  and  _195
REMARK   75  A    between atoms: _195  and  _196
REMARK   76  A    between atoms: _195  and  _198
REMARK   77  A    between atoms: _198  and  _199
REMARK   78  A    between atoms: _199  and  _200
REMARK   79  A    between atoms: _200  and  _201
REMARK   80  A    between atoms: _201  and  _202
REMARK   81  A    between atoms: _206  and  _208
REMARK   82  A    between atoms: _208  and  _209
REMARK   83  A    between atoms: _208  and  _211
REMARK   84  A    between atoms: _211  and  _212
REMARK   85  A    between atoms: _212  and  _213
REMARK   86  A    between atoms: _215  and  _217
REMARK   87  A    between atoms: _217  and  _218
REMARK   88  A    between atoms: _217  and  _220
REMARK   89  A    between atoms: _220  and  _221
REMARK   90  A    between atoms: _226  and  _227
REMARK   91  A    between atoms: _229  and  _231
REMARK   92  A    between atoms: _231  and  _232
REMARK   93  A    between atoms: _231  and  _234
REMARK   94  A    between atoms: _234  and  _235
REMARK   95  A    between atoms: _238  and  _240
REMARK   96  A    between atoms: _240  and  _241
REMARK   97  A    between atoms: _240  and  _243
REMARK   98  A    between atoms: _243  and  _244
REMARK   99  A    between atoms: _250  and  _252
REMARK  100  A    between atoms: _252  and  _253
REMARK  101  A    between atoms: _252  and  _255
REMARK  102  A    between atoms: _255  and  _256
REMARK  103  A    between atoms: _261  and  _262
REMARK  104  A    between atoms: _264  and  _266
REMARK  105  A    between atoms: _266  and  _267
REMARK  106  A    between atoms: _269  and  _271
REMARK  107  A    between atoms: _271  and  _272
REMARK  108  A    between atoms: _274  and  _276
REMARK  109  A    between atoms: _276  and  _277
REMARK  110  A    between atoms: _276  and  _279
REMARK  111  A    between atoms: _279  and  _280
REMARK  112  A    between atoms: _290  and  _292
REMARK  113  A    between atoms: _292  and  _293
REMARK  114  A    between atoms: _292  and  _295
REMARK  115  A    between atoms: _295  and  _296
REMARK  116  A    between atoms: _301  and  _303
REMARK  117  A    between atoms: _303  and  _304
REMARK  118  A    between atoms: _303  and  _306
REMARK  119  A    between atoms: _306  and  _307
REMARK  120  A    between atoms: _307  and  _308
REMARK  121  A    between atoms: _313  and  _315
REMARK  122  A    between atoms: _315  and  _316
REMARK  123  A    between atoms: _315  and  _318
REMARK  124  A    between atoms: _318  and  _319
REMARK  125  A    between atoms: _324  and  _325
REMARK  126  A    between atoms: _327  and  _329
REMARK  127  A    between atoms: _329  and  _330
REMARK  128  A    between atoms: _329  and  _332
REMARK  129  A    between atoms: _332  and  _333
REMARK  130  A    between atoms: _338  and  _339
REMARK  131  A    between atoms: _341  and  _343
REMARK  132  A    between atoms: _343  and  _344
REMARK  133  A    between atoms: _343  and  _346
REMARK  134  A    between atoms: _346  and  _347
REMARK  135  A    between atoms: _347  and  _348
REMARK  136  A    between atoms: _348  and  _349
REMARK  137  A    between atoms: _358  and  _360
REMARK  138  A    between atoms: _360  and  _361
REMARK  139  A    between atoms: _360  and  _363
REMARK  140  A    between atoms: _363  and  _364
REMARK  141  A    between atoms: _364  and  _365
REMARK  142  A    between atoms: _365  and  _366
REMARK  143  A    between atoms: _366  and  _367
REMARK  144  A    between atoms: _371  and  _373
REMARK  145  A    between atoms: _373  and  _374
REMARK  146  A    between atoms: _373  and  _376
REMARK  147  A    between atoms: _376  and  _377
REMARK  148  A    between atoms: _377  and  _378
REMARK  149  A    between atoms: _381  and  _383
REMARK  150  A    between atoms: _383  and  _384
REMARK  151  A    between atoms: _383  and  _386
REMARK  152  A    between atoms: _389  and  _391
REMARK  153  A    between atoms: _391  and  _392
REMARK  154  A    between atoms: _391  and  _394
REMARK  155  A    between atoms: _394  and  _395
REMARK                            x       y       z     vdW  Elec       q    Type
REMARK                         _______ _______ _______ _____ _____    ______ ____
ROOT
ATOM      1  O   HOH     1      15.460 -17.802  27.504  0.00  0.00    +0.000 OA
ENDROOT
TORSDOF 0
REMARK  Name = ../refined-set-2016/3arq/3arq_pocket.pdb
REMARK  155 active torsions:
REMARK  status: ('A' for Active; 'I' for Inactive)
REMARK    1  A    between atoms: _1  and  _3
REMARK    2  A    between atoms: _3  and  _4
REMARK    3  A    between atoms: _3  and  _6
REMARK    4  A    between atoms: _6  and  _7
REMARK    5  A    between atoms: _17  and  _19
REMARK    6  A    between atoms: _19  and  _20
REMARK    7  A    between atoms: _19  and  _22
REMARK    8  A    between atoms: _22  and  _23
REMARK    9  A    between atoms: _29  and  _31
REMARK   10  A    between atoms: _31  and  _32
REMARK   11  A    between atoms: _31  and  _34
REMARK   12  A    between atoms: _34  and  _35
REMARK   13  A    between atoms: _37  and  _39
REMARK   14  A    between atoms: _39  and  _40
REMARK   15  A    between atoms: _39  and  _42
REMARK   16  A    between atoms: _45  and  _47
REMARK   17  A    between atoms: _47  and  _48
REMARK   18  A    between atoms: _50  and  _52
REMARK   19  A    between atoms: _52  and  _53
REMARK   20  A    between atoms: _52  and  _55
REMARK   21  A    between atoms: _55  and  _56
REMARK   22  A    between atoms: _66  and  _68
REMARK   23  A    between atoms: _68  and  _69
REMARK   24  A    between atoms: _68  and  _71
REMARK   25  A    between atoms: _71  and  _72
REMARK   26  A    between atoms: _75  and  _77
REMARK   27  A    between atoms: _77  and  _78
REMARK   28  A    between atoms: _77  and  _80
REMARK   29  A    between atoms: _80  and  _81
REMARK   30  A    between atoms: _86  and  _87
REMARK   31  A    between atoms: _89  and  _91
REMARK   32  A    between atoms: _91  and  _92
REMARK   33  A    between atoms: _91  and  _94
REMARK   34  A    between atoms: _94  and  _95
REMARK   35  A    between atoms: _95  and  _96
REMARK   36  A    between atoms: _99  and  _101
REMARK   37  A    between atoms: _101  and  _102
REMARK   38  A    between atoms: _101  and  _104
REMARK   39  A    between atoms: _104  and  _105
REMARK   40  A    between atoms: _111  and  _113
REMARK   41  A    between atoms: _113  and  _114
REMARK   42  A    between atoms: _116  and  _118
REMARK   43  A    between atoms: _118  and  _119
REMARK   44  A    between atoms: _121  and  _123
REMARK   45  A    between atoms: _123  and  _124
REMARK   46  A    between atoms: _126  and  _128
REMARK   47  A    between atoms: _128  and  _129
REMARK   48  A    between atoms: _132  and  _134
REMARK   49  A    between atoms: _134  and  _135
REMARK   50  A    between atoms: _138  and  _140
REMARK   51  A    between atoms: _140  and  _141
REMARK   52  A    between atoms: _144  and  _146
REMARK   53  A    between atoms: _146  and  _147
REMARK   54  A    between atoms: _146  and  _149
REMARK   55  A    between atoms: _149  and  _150
REMARK   56  A    between atoms: _153  and  _155
REMARK   57  A    between atoms: _155  and  _156
REMARK   58  A    between atoms: _155  and  _158
REMARK   59  A    between atoms: _158  and  _159
REMARK   60  A    between atoms: _159  and  _160
REMARK   61  A    between atoms: _160  and  _161
REMARK   62  A    between atoms: _161  and  _162
REMARK   63  A    between atoms: _166  and  _168
REMARK   64  A    between atoms: _168  and  _169
REMARK   65  A    between atoms: _171  and  _173
REMARK   66  A    between atoms: _173  and  _174
REMARK   67  A    between atoms: _173  and  _176
REMARK   68  A    between atoms: _179  and  _181
REMARK   69  A    between atoms: _181  and  _182
REMARK   70  A    between atoms: _184  and  _186
REMARK   71  A    between atoms: _186  and  _187
REMARK   72  A    between atoms: _186  and  _189
REMARK   73  A    between atoms: _189  and  _190
REMARK   74  A    between atoms: _193  and  _195
REMARK   75  A    between atoms: _195  and  _196
REMARK   76  A    between atoms: _195  and  _198
REMARK   77  A    between atoms: _198  and  _199
REMARK   78  A    between atoms: _199  and  _200
REMARK   79  A    between atoms: _200  and  _201
REMARK   80  A    between atoms: _201  and  _202
REMARK   81  A    between atoms: _206  and  _208
REMARK   82  A    between atoms: _208  and  _209
REMARK   83  A    between atoms: _208  and  _211
REMARK   84  A    between atoms: _211  and  _212
REMARK   85  A    between atoms: _212  and  _213
REMARK   86  A    between atoms: _215  and  _217
REMARK   87  A    between atoms: _217  and  _218
REMARK   88  A    between atoms: _217  and  _220
REMARK   89  A    between atoms: _220  and  _221
REMARK   90  A    between atoms: _226  and  _227
REMARK   91  A    between atoms: _229  and  _231
REMARK   92  A    between atoms: _231  and  _232
REMARK   93  A    between atoms: _231  and  _234
REMARK   94  A    between atoms: _234  and  _235
REMARK   95  A    between atoms: _238  and  _240
REMARK   96  A    between atoms: _240  and  _241
REMARK   97  A    between atoms: _240  and  _243
REMARK   98  A    between atoms: _243  and  _244
REMARK   99  A    between atoms: _250  and  _252
REMARK  100  A    between atoms: _252  and  _253
REMARK  101  A    between atoms: _252  and  _255
REMARK  102  A    between atoms: _255  and  _256
REMARK  103  A    between atoms: _261  and  _262
REMARK  104  A    between atoms: _264  and  _266
REMARK  105  A    between atoms: _266  and  _267
REMARK  106  A    between atoms: _269  and  _271
REMARK  107  A    between atoms: _271  and  _272
REMARK  108  A    between atoms: _274  and  _276
REMARK  109  A    between atoms: _276  and  _277
REMARK  110  A    between atoms: _276  and  _279
REMARK  111  A    between atoms: _279  and  _280
REMARK  112  A    between atoms: _290  and  _292
REMARK  113  A    between atoms: _292  and  _293
REMARK  114  A    between atoms: _292  and  _295
REMARK  115  A    between atoms: _295  and  _296
REMARK  116  A    between atoms: _301  and  _303
REMARK  117  A    between atoms: _303  and  _304
REMARK  118  A    between atoms: _303  and  _306
REMARK  119  A    between atoms: _306  and  _307
REMARK  120  A    between atoms: _307  and  _308
REMARK  121  A    between atoms: _313  and  _315
REMARK  122  A    between atoms: _315  and  _316
REMARK  123  A    between atoms: _315  and  _318
REMARK  124  A    between atoms: _318  and  _319
REMARK  125  A    between atoms: _324  and  _325
REMARK  126  A    between atoms: _327  and  _329
REMARK  127  A    between atoms: _329  and  _330
REMARK  128  A    between atoms: _329  and  _332
REMARK  129  A    between atoms: _332  and  _333
REMARK  130  A    between atoms: _338  and  _339
REMARK  131  A    between atoms: _341  and  _343
REMARK  132  A    between atoms: _343  and  _344
REMARK  133  A    between atoms: _343  and  _346
REMARK  134  A    between atoms: _346  and  _347
REMARK  135  A    between atoms: _347  and  _348
REMARK  136  A    between atoms: _348  and  _349
REMARK  137  A    between atoms: _358  and  _360
REMARK  138  A    between atoms: _360  and  _361
REMARK  139  A    between atoms: _360  and  _363
REMARK  140  A    between atoms: _363  and  _364
REMARK  141  A    between atoms: _364  and  _365
REMARK  142  A    between atoms: _365  and  _366
REMARK  143  A    between atoms: _366  and  _367
REMARK  144  A    between atoms: _371  and  _373
REMARK  145  A    between atoms: _373  and  _374
REMARK  146  A    between atoms: _373  and  _376
REMARK  147  A    between atoms: _376  and  _377
REMARK  148  A    between atoms: _377  and  _378
REMARK  149  A    between atoms: _381  and  _383
REMARK  150  A    between atoms: _383  and  _384
REMARK  151  A    between atoms: _383  and  _386
REMARK  152  A    between atoms: _389  and  _391
REMARK  153  A    between atoms: _391  and  _392
REMARK  154  A    between atoms: _391  and  _394
REMARK  155  A    between atoms: _394  and  _395
REMARK                            x       y       z     vdW  Elec       q    Type
REMARK                         _______ _______ _______ _____ _____    ______ ____
ROOT
ATOM      1  O   HOH     1      20.922 -20.420  24.831  0.00  0.00    +0.000 OA
ENDROOT
TORSDOF 0
REMARK  Name = ../refined-set-2016/3arq/3arq_pocket.pdb
REMARK  155 active torsions:
REMARK  status: ('A' for Active; 'I' for Inactive)
REMARK    1  A    between atoms: _1  and  _3
REMARK    2  A    between atoms: _3  and  _4
REMARK    3  A    between atoms: _3  and  _6
REMARK    4  A    between atoms: _6  and  _7
REMARK    5  A    between atoms: _17  and  _19
REMARK    6  A    between atoms: _19  and  _20
REMARK    7  A    between atoms: _19  and  _22
REMARK    8  A    between atoms: _22  and  _23
REMARK    9  A    between atoms: _29  and  _31
REMARK   10  A    between atoms: _31  and  _32
REMARK   11  A    between atoms: _31  and  _34
REMARK   12  A    between atoms: _34  and  _35
REMARK   13  A    between atoms: _37  and  _39
REMARK   14  A    between atoms: _39  and  _40
REMARK   15  A    between atoms: _39  and  _42
REMARK   16  A    between atoms: _45  and  _47
REMARK   17  A    between atoms: _47  and  _48
REMARK   18  A    between atoms: _50  and  _52
REMARK   19  A    between atoms: _52  and  _53
REMARK   20  A    between atoms: _52  and  _55
REMARK   21  A    between atoms: _55  and  _56
REMARK   22  A    between atoms: _66  and  _68
REMARK   23  A    between atoms: _68  and  _69
REMARK   24  A    between atoms: _68  and  _71
REMARK   25  A    between atoms: _71  and  _72
REMARK   26  A    between atoms: _75  and  _77
REMARK   27  A    between atoms: _77  and  _78
REMARK   28  A    between atoms: _77  and  _80
REMARK   29  A    between atoms: _80  and  _81
REMARK   30  A    between atoms: _86  and  _87
REMARK   31  A    between atoms: _89  and  _91
REMARK   32  A    between atoms: _91  and  _92
REMARK   33  A    between atoms: _91  and  _94
REMARK   34  A    between atoms: _94  and  _95
REMARK   35  A    between atoms: _95  and  _96
REMARK   36  A    between atoms: _99  and  _101
REMARK   37  A    between atoms: _101  and  _102
REMARK   38  A    between atoms: _101  and  _104
REMARK   39  A    between atoms: _104  and  _105
REMARK   40  A    between atoms: _111  and  _113
REMARK   41  A    between atoms: _113  and  _114
REMARK   42  A    between atoms: _116  and  _118
REMARK   43  A    between atoms: _118  and  _119
REMARK   44  A    between atoms: _121  and  _123
REMARK   45  A    between atoms: _123  and  _124
REMARK   46  A    between atoms: _126  and  _128
REMARK   47  A    between atoms: _128  and  _129
REMARK   48  A    between atoms: _132  and  _134
REMARK   49  A    between atoms: _134  and  _135
REMARK   50  A    between atoms: _138  and  _140
REMARK   51  A    between atoms: _140  and  _141
REMARK   52  A    between atoms: _144  and  _146
REMARK   53  A    between atoms: _146  and  _147
REMARK   54  A    between atoms: _146  and  _149
REMARK   55  A    between atoms: _149  and  _150
REMARK   56  A    between atoms: _153  and  _155
REMARK   57  A    between atoms: _155  and  _156
REMARK   58  A    between atoms: _155  and  _158
REMARK   59  A    between atoms: _158  and  _159
REMARK   60  A    between atoms: _159  and  _160
REMARK   61  A    between atoms: _160  and  _161
REMARK   62  A    between atoms: _161  and  _162
REMARK   63  A    between atoms: _166  and  _168
REMARK   64  A    between atoms: _168  and  _169
REMARK   65  A    between atoms: _171  and  _173
REMARK   66  A    between atoms: _173  and  _174
REMARK   67  A    between atoms: _173  and  _176
REMARK   68  A    between atoms: _179  and  _181
REMARK   69  A    between atoms: _181  and  _182
REMARK   70  A    between atoms: _184  and  _186
REMARK   71  A    between atoms: _186  and  _187
REMARK   72  A    between atoms: _186  and  _189
REMARK   73  A    between atoms: _189  and  _190
REMARK   74  A    between atoms: _193  and  _195
REMARK   75  A    between atoms: _195  and  _196
REMARK   76  A    between atoms: _195  and  _198
REMARK   77  A    between atoms: _198  and  _199
REMARK   78  A    between atoms: _199  and  _200
REMARK   79  A    between atoms: _200  and  _201
REMARK   80  A    between atoms: _201  and  _202
REMARK   81  A    between atoms: _206  and  _208
REMARK   82  A    between atoms: _208  and  _209
REMARK   83  A    between atoms: _208  and  _211
REMARK   84  A    between atoms: _211  and  _212
REMARK   85  A    between atoms: _212  and  _213
REMARK   86  A    between atoms: _215  and  _217
REMARK   87  A    between atoms: _217  and  _218
REMARK   88  A    between atoms: _217  and  _220
REMARK   89  A    between atoms: _220  and  _221
REMARK   90  A    between atoms: _226  and  _227
REMARK   91  A    between atoms: _229  and  _231
REMARK   92  A    between atoms: _231  and  _232
REMARK   93  A    between atoms: _231  and  _234
REMARK   94  A    between atoms: _234  and  _235
REMARK   95  A    between atoms: _238  and  _240
REMARK   96  A    between atoms: _240  and  _241
REMARK   97  A    between atoms: _240  and  _243
REMARK   98  A    between atoms: _243  and  _244
REMARK   99  A    between atoms: _250  and  _252
REMARK  100  A    between atoms: _252  and  _253
REMARK  101  A    between atoms: _252  and  _255
REMARK  102  A    between atoms: _255  and  _256
REMARK  103  A    between atoms: _261  and  _262
REMARK  104  A    between atoms: _264  and  _266
REMARK  105  A    between atoms: _266  and  _267
REMARK  106  A    between atoms: _269  and  _271
REMARK  107  A    between atoms: _271  and  _272
REMARK  108  A    between atoms: _274  and  _276
REMARK  109  A    between atoms: _276  and  _277
REMARK  110  A    between atoms: _276  and  _279
REMARK  111  A    between atoms: _279  and  _280
REMARK  112  A    between atoms: _290  and  _292
REMARK  113  A    between atoms: _292  and  _293
REMARK  114  A    between atoms: _292  and  _295
REMARK  115  A    between atoms: _295  and  _296
REMARK  116  A    between atoms: _301  and  _303
REMARK  117  A    between atoms: _303  and  _304
REMARK  118  A    between atoms: _303  and  _306
REMARK  119  A    between atoms: _306  and  _307
REMARK  120  A    between atoms: _307  and  _308
REMARK  121  A    between atoms: _313  and  _315
REMARK  122  A    between atoms: _315  and  _316
REMARK  123  A    between atoms: _315  and  _318
REMARK  124  A    between atoms: _318  and  _319
REMARK  125  A    between atoms: _324  and  _325
REMARK  126  A    between atoms: _327  and  _329
REMARK  127  A    between atoms: _329  and  _330
REMARK  128  A    between atoms: _329  and  _332
REMARK  129  A    between atoms: _332  and  _333
REMARK  130  A    between atoms: _338  and  _339
REMARK  131  A    between atoms: _341  and  _343
REMARK  132  A    between atoms: _343  and  _344
REMARK  133  A    between atoms: _343  and  _346
REMARK  134  A    between atoms: _346  and  _347
REMARK  135  A    between atoms: _347  and  _348
REMARK  136  A    between atoms: _348  and  _349
REMARK  137  A    between atoms: _358  and  _360
REMARK  138  A    between atoms: _360  and  _361
REMARK  139  A    between atoms: _360  and  _363
REMARK  140  A    between atoms: _363  and  _364
REMARK  141  A    between atoms: _364  and  _365
REMARK  142  A    between atoms: _365  and  _366
REMARK  143  A    between atoms: _366  and  _367
REMARK  144  A    between atoms: _371  and  _373
REMARK  145  A    between atoms: _373  and  _374
REMARK  146  A    between atoms: _373  and  _376
REMARK  147  A    between atoms: _376  and  _377
REMARK  148  A    between atoms: _377  and  _378
REMARK  149  A    between atoms: _381  and  _383
REMARK  150  A    between atoms: _383  and  _384
REMARK  151  A    between atoms: _383  and  _386
REMARK  152  A    between atoms: _389  and  _391
REMARK  153  A    between atoms: _391  and  _392
REMARK  154  A    between atoms: _391  and  _394
REMARK  155  A    between atoms: _394  and  _395
REMARK                            x       y       z     vdW  Elec       q    Type
REMARK                         _______ _______ _______ _____ _____    ______ ____
ROOT
ATOM      1  O   HOH     1       8.204  -2.449  26.352  0.00  0.00    +0.000 OA
ENDROOT
TORSDOF 0
REMARK  Name = ../refined-set-2016/3arq/3arq_pocket.pdb
REMARK  155 active torsions:
REMARK  status: ('A' for Active; 'I' for Inactive)
REMARK    1  A    between atoms: _1  and  _3
REMARK    2  A    between atoms: _3  and  _4
REMARK    3  A    between atoms: _3  and  _6
REMARK    4  A    between atoms: _6  and  _7
REMARK    5  A    between atoms: _17  and  _19
REMARK    6  A    between atoms: _19  and  _20
REMARK    7  A    between atoms: _19  and  _22
REMARK    8  A    between atoms: _22  and  _23
REMARK    9  A    between atoms: _29  and  _31
REMARK   10  A    between atoms: _31  and  _32
REMARK   11  A    between atoms: _31  and  _34
REMARK   12  A    between atoms: _34  and  _35
REMARK   13  A    between atoms: _37  and  _39
REMARK   14  A    between atoms: _39  and  _40
REMARK   15  A    between atoms: _39  and  _42
REMARK   16  A    between atoms: _45  and  _47
REMARK   17  A    between atoms: _47  and  _48
REMARK   18  A    between atoms: _50  and  _52
REMARK   19  A    between atoms: _52  and  _53
REMARK   20  A    between atoms: _52  and  _55
REMARK   21  A    between atoms: _55  and  _56
REMARK   22  A    between atoms: _66  and  _68
REMARK   23  A    between atoms: _68  and  _69
REMARK   24  A    between atoms: _68  and  _71
REMARK   25  A    between atoms: _71  and  _72
REMARK   26  A    between atoms: _75  and  _77
REMARK   27  A    between atoms: _77  and  _78
REMARK   28  A    between atoms: _77  and  _80
REMARK   29  A    between atoms: _80  and  _81
REMARK   30  A    between atoms: _86  and  _87
REMARK   31  A    between atoms: _89  and  _91
REMARK   32  A    between atoms: _91  and  _92
REMARK   33  A    between atoms: _91  and  _94
REMARK   34  A    between atoms: _94  and  _95
REMARK   35  A    between atoms: _95  and  _96
REMARK   36  A    between atoms: _99  and  _101
REMARK   37  A    between atoms: _101  and  _102
REMARK   38  A    between atoms: _101  and  _104
REMARK   39  A    between atoms: _104  and  _105
REMARK   40  A    between atoms: _111  and  _113
REMARK   41  A    between atoms: _113  and  _114
REMARK   42  A    between atoms: _116  and  _118
REMARK   43  A    between atoms: _118  and  _119
REMARK   44  A    between atoms: _121  and  _123
REMARK   45  A    between atoms: _123  and  _124
REMARK   46  A    between atoms: _126  and  _128
REMARK   47  A    between atoms: _128  and  _129
REMARK   48  A    between atoms: _132  and  _134
REMARK   49  A    between atoms: _134  and  _135
REMARK   50  A    between atoms: _138  and  _140
REMARK   51  A    between atoms: _140  and  _141
REMARK   52  A    between atoms: _144  and  _146
REMARK   53  A    between atoms: _146  and  _147
REMARK   54  A    between atoms: _146  and  _149
REMARK   55  A    between atoms: _149  and  _150
REMARK   56  A    between atoms: _153  and  _155
REMARK   57  A    between atoms: _155  and  _156
REMARK   58  A    between atoms: _155  and  _158
REMARK   59  A    between atoms: _158  and  _159
REMARK   60  A    between atoms: _159  and  _160
REMARK   61  A    between atoms: _160  and  _161
REMARK   62  A    between atoms: _161  and  _162
REMARK   63  A    between atoms: _166  and  _168
REMARK   64  A    between atoms: _168  and  _169
REMARK   65  A    between atoms: _171  and  _173
REMARK   66  A    between atoms: _173  and  _174
REMARK   67  A    between atoms: _173  and  _176
REMARK   68  A    between atoms: _179  and  _181
REMARK   69  A    between atoms: _181  and  _182
REMARK   70  A    between atoms: _184  and  _186
REMARK   71  A    between atoms: _186  and  _187
REMARK   72  A    between atoms: _186  and  _189
REMARK   73  A    between atoms: _189  and  _190
REMARK   74  A    between atoms: _193  and  _195
REMARK   75  A    between atoms: _195  and  _196
REMARK   76  A    between atoms: _195  and  _198
REMARK   77  A    between atoms: _198  and  _199
REMARK   78  A    between atoms: _199  and  _200
REMARK   79  A    between atoms: _200  and  _201
REMARK   80  A    between atoms: _201  and  _202
REMARK   81  A    between atoms: _206  and  _208
REMARK   82  A    between atoms: _208  and  _209
REMARK   83  A    between atoms: _208  and  _211
REMARK   84  A    between atoms: _211  and  _212
REMARK   85  A    between atoms: _212  and  _213
REMARK   86  A    between atoms: _215  and  _217
REMARK   87  A    between atoms: _217  and  _218
REMARK   88  A    between atoms: _217  and  _220
REMARK   89  A    between atoms: _220  and  _221
REMARK   90  A    between atoms: _226  and  _227
REMARK   91  A    between atoms: _229  and  _231
REMARK   92  A    between atoms: _231  and  _232
REMARK   93  A    between atoms: _231  and  _234
REMARK   94  A    between atoms: _234  and  _235
REMARK   95  A    between atoms: _238  and  _240
REMARK   96  A    between atoms: _240  and  _241
REMARK   97  A    between atoms: _240  and  _243
REMARK   98  A    between atoms: _243  and  _244
REMARK   99  A    between atoms: _250  and  _252
REMARK  100  A    between atoms: _252  and  _253
REMARK  101  A    between atoms: _252  and  _255
REMARK  102  A    between atoms: _255  and  _256
REMARK  103  A    between atoms: _261  and  _262
REMARK  104  A    between atoms: _264  and  _266
REMARK  105  A    between atoms: _266  and  _267
REMARK  106  A    between atoms: _269  and  _271
REMARK  107  A    between atoms: _271  and  _272
REMARK  108  A    between atoms: _274  and  _276
REMARK  109  A    between atoms: _276  and  _277
REMARK  110  A    between atoms: _276  and  _279
REMARK  111  A    between atoms: _279  and  _280
REMARK  112  A    between atoms: _290  and  _292
REMARK  113  A    between atoms: _292  and  _293
REMARK  114  A    between atoms: _292  and  _295
REMARK  115  A    between atoms: _295  and  _296
REMARK  116  A    between atoms: _301  and  _303
REMARK  117  A    between atoms: _303  and  _304
REMARK  118  A    between atoms: _303  and  _306
REMARK  119  A    between atoms: _306  and  _307
REMARK  120  A    between atoms: _307  and  _308
REMARK  121  A    between atoms: _313  and  _315
REMARK  122  A    between atoms: _315  and  _316
REMARK  123  A    between atoms: _315  and  _318
REMARK  124  A    between atoms: _318  and  _319
REMARK  125  A    between atoms: _324  and  _325
REMARK  126  A    between atoms: _327  and  _329
REMARK  127  A    between atoms: _329  and  _330
REMARK  128  A    between atoms: _329  and  _332
REMARK  129  A    between atoms: _332  and  _333
REMARK  130  A    between atoms: _338  and  _339
REMARK  131  A    between atoms: _341  and  _343
REMARK  132  A    between atoms: _343  and  _344
REMARK  133  A    between atoms: _343  and  _346
REMARK  134  A    between atoms: _346  and  _347
REMARK  135  A    between atoms: _347  and  _348
REMARK  136  A    between atoms: _348  and  _349
REMARK  137  A    between atoms: _358  and  _360
REMARK  138  A    between atoms: _360  and  _361
REMARK  139  A    between atoms: _360  and  _363
REMARK  140  A    between atoms: _363  and  _364
REMARK  141  A    between atoms: _364  and  _365
REMARK  142  A    between atoms: _365  and  _366
REMARK  143  A    between atoms: _366  and  _367
REMARK  144  A    between atoms: _371  and  _373
REMARK  145  A    between atoms: _373  and  _374
REMARK  146  A    between atoms: _373  and  _376
REMARK  147  A    between atoms: _376  and  _377
REMARK  148  A    between atoms: _377  and  _378
REMARK  149  A    between atoms: _381  and  _383
REMARK  150  A    between atoms: _383  and  _384
REMARK  151  A    between atoms: _383  and  _386
REMARK  152  A    between atoms: _389  and  _391
REMARK  153  A    between atoms: _391  and  _392
REMARK  154  A    between atoms: _391  and  _394
REMARK  155  A    between atoms: _394  and  _395
REMARK                            x       y       z     vdW  Elec       q    Type
REMARK                         _______ _______ _______ _____ _____    ______ ____
ROOT
ATOM      1  O   HOH     1       8.698 -11.659  28.389  0.00  0.00    +0.000 OA
ENDROOT
TORSDOF 0
REMARK  Name = ../refined-set-2016/3arq/3arq_pocket.pdb
REMARK  155 active torsions:
REMARK  status: ('A' for Active; 'I' for Inactive)
REMARK    1  A    between atoms: _1  and  _3
REMARK    2  A    between atoms: _3  and  _4
REMARK    3  A    between atoms: _3  and  _6
REMARK    4  A    between atoms: _6  and  _7
REMARK    5  A    between atoms: _17  and  _19
REMARK    6  A    between atoms: _19  and  _20
REMARK    7  A    between atoms: _19  and  _22
REMARK    8  A    between atoms: _22  and  _23
REMARK    9  A    between atoms: _29  and  _31
REMARK   10  A    between atoms: _31  and  _32
REMARK   11  A    between atoms: _31  and  _34
REMARK   12  A    between atoms: _34  and  _35
REMARK   13  A    between atoms: _37  and  _39
REMARK   14  A    between atoms: _39  and  _40
REMARK   15  A    between atoms: _39  and  _42
REMARK   16  A    between atoms: _45  and  _47
REMARK   17  A    between atoms: _47  and  _48
REMARK   18  A    between atoms: _50  and  _52
REMARK   19  A    between atoms: _52  and  _53
REMARK   20  A    between atoms: _52  and  _55
REMARK   21  A    between atoms: _55  and  _56
REMARK   22  A    between atoms: _66  and  _68
REMARK   23  A    between atoms: _68  and  _69
REMARK   24  A    between atoms: _68  and  _71
REMARK   25  A    between atoms: _71  and  _72
REMARK   26  A    between atoms: _75  and  _77
REMARK   27  A    between atoms: _77  and  _78
REMARK   28  A    between atoms: _77  and  _80
REMARK   29  A    between atoms: _80  and  _81
REMARK   30  A    between atoms: _86  and  _87
REMARK   31  A    between atoms: _89  and  _91
REMARK   32  A    between atoms: _91  and  _92
REMARK   33  A    between atoms: _91  and  _94
REMARK   34  A    between atoms: _94  and  _95
REMARK   35  A    between atoms: _95  and  _96
REMARK   36  A    between atoms: _99  and  _101
REMARK   37  A    between atoms: _101  and  _102
REMARK   38  A    between atoms: _101  and  _104
REMARK   39  A    between atoms: _104  and  _105
REMARK   40  A    between atoms: _111  and  _113
REMARK   41  A    between atoms: _113  and  _114
REMARK   42  A    between atoms: _116  and  _118
REMARK   43  A    between atoms: _118  and  _119
REMARK   44  A    between atoms: _121  and  _123
REMARK   45  A    between atoms: _123  and  _124
REMARK   46  A    between atoms: _126  and  _128
REMARK   47  A    between atoms: _128  and  _129
REMARK   48  A    between atoms: _132  and  _134
REMARK   49  A    between atoms: _134  and  _135
REMARK   50  A    between atoms: _138  and  _140
REMARK   51  A    between atoms: _140  and  _141
REMARK   52  A    between atoms: _144  and  _146
REMARK   53  A    between atoms: _146  and  _147
REMARK   54  A    between atoms: _146  and  _149
REMARK   55  A    between atoms: _149  and  _150
REMARK   56  A    between atoms: _153  and  _155
REMARK   57  A    between atoms: _155  and  _156
REMARK   58  A    between atoms: _155  and  _158
REMARK   59  A    between atoms: _158  and  _159
REMARK   60  A    between atoms: _159  and  _160
REMARK   61  A    between atoms: _160  and  _161
REMARK   62  A    between atoms: _161  and  _162
REMARK   63  A    between atoms: _166  and  _168
REMARK   64  A    between atoms: _168  and  _169
REMARK   65  A    between atoms: _171  and  _173
REMARK   66  A    between atoms: _173  and  _174
REMARK   67  A    between atoms: _173  and  _176
REMARK   68  A    between atoms: _179  and  _181
REMARK   69  A    between atoms: _181  and  _182
REMARK   70  A    between atoms: _184  and  _186
REMARK   71  A    between atoms: _186  and  _187
REMARK   72  A    between atoms: _186  and  _189
REMARK   73  A    between atoms: _189  and  _190
REMARK   74  A    between atoms: _193  and  _195
REMARK   75  A    between atoms: _195  and  _196
REMARK   76  A    between atoms: _195  and  _198
REMARK   77  A    between atoms: _198  and  _199
REMARK   78  A    between atoms: _199  and  _200
REMARK   79  A    between atoms: _200  and  _201
REMARK   80  A    between atoms: _201  and  _202
REMARK   81  A    between atoms: _206  and  _208
REMARK   82  A    between atoms: _208  and  _209
REMARK   83  A    between atoms: _208  and  _211
REMARK   84  A    between atoms: _211  and  _212
REMARK   85  A    between atoms: _212  and  _213
REMARK   86  A    between atoms: _215  and  _217
REMARK   87  A    between atoms: _217  and  _218
REMARK   88  A    between atoms: _217  and  _220
REMARK   89  A    between atoms: _220  and  _221
REMARK   90  A    between atoms: _226  and  _227
REMARK   91  A    between atoms: _229  and  _231
REMARK   92  A    between atoms: _231  and  _232
REMARK   93  A    between atoms: _231  and  _234
REMARK   94  A    between atoms: _234  and  _235
REMARK   95  A    between atoms: _238  and  _240
REMARK   96  A    between atoms: _240  and  _241
REMARK   97  A    between atoms: _240  and  _243
REMARK   98  A    between atoms: _243  and  _244
REMARK   99  A    between atoms: _250  and  _252
REMARK  100  A    between atoms: _252  and  _253
REMARK  101  A    between atoms: _252  and  _255
REMARK  102  A    between atoms: _255  and  _256
REMARK  103  A    between atoms: _261  and  _262
REMARK  104  A    between atoms: _264  and  _266
REMARK  105  A    between atoms: _266  and  _267
REMARK  106  A    between atoms: _269  and  _271
REMARK  107  A    between atoms: _271  and  _272
REMARK  108  A    between atoms: _274  and  _276
REMARK  109  A    between atoms: _276  and  _277
REMARK  110  A    between atoms: _276  and  _279
REMARK  111  A    between atoms: _279  and  _280
REMARK  112  A    between atoms: _290  and  _292
REMARK  113  A    between atoms: _292  and  _293
REMARK  114  A    between atoms: _292  and  _295
REMARK  115  A    between atoms: _295  and  _296
REMARK  116  A    between atoms: _301  and  _303
REMARK  117  A    between atoms: _303  and  _304
REMARK  118  A    between atoms: _303  and  _306
REMARK  119  A    between atoms: _306  and  _307
REMARK  120  A    between atoms: _307  and  _308
REMARK  121  A    between atoms: _313  and  _315
REMARK  122  A    between atoms: _315  and  _316
REMARK  123  A    between atoms: _315  and  _318
REMARK  124  A    between atoms: _318  and  _319
REMARK  125  A    between atoms: _324  and  _325
REMARK  126  A    between atoms: _327  and  _329
REMARK  127  A    between atoms: _329  and  _330
REMARK  128  A    between atoms: _329  and  _332
REMARK  129  A    between atoms: _332  and  _333
REMARK  130  A    between atoms: _338  and  _339
REMARK  131  A    between atoms: _341  and  _343
REMARK  132  A    between atoms: _343  and  _344
REMARK  133  A    between atoms: _343  and  _346
REMARK  134  A    between atoms: _346  and  _347
REMARK  135  A    between atoms: _347  and  _348
REMARK  136  A    between atoms: _348  and  _349
REMARK  137  A    between atoms: _358  and  _360
REMARK  138  A    between atoms: _360  and  _361
REMARK  139  A    between atoms: _360  and  _363
REMARK  140  A    between atoms: _363  and  _364
REMARK  141  A    between atoms: _364  and  _365
REMARK  142  A    between atoms: _365  and  _366
REMARK  143  A    between atoms: _366  and  _367
REMARK  144  A    between atoms: _371  and  _373
REMARK  145  A    between atoms: _373  and  _374
REMARK  146  A    between atoms: _373  and  _376
REMARK  147  A    between atoms: _376  and  _377
REMARK  148  A    between atoms: _377  and  _378
REMARK  149  A    between atoms: _381  and  _383
REMARK  150  A    between atoms: _383  and  _384
REMARK  151  A    between atoms: _383  and  _386
REMARK  152  A    between atoms: _389  and  _391
REMARK  153  A    between atoms: _391  and  _392
REMARK  154  A    between atoms: _391  and  _394
REMARK  155  A    between atoms: _394  and  _395
REMARK                            x       y       z     vdW  Elec       q    Type
REMARK                         _______ _______ _______ _____ _____    ______ ____
ROOT
ATOM      1  O   HOH     1      17.949 -19.175  25.563  0.00  0.00    +0.000 OA
ENDROOT
TORSDOF 0
REMARK  Name = ../refined-set-2016/3arq/3arq_pocket.pdb
REMARK  155 active torsions:
REMARK  status: ('A' for Active; 'I' for Inactive)
REMARK    1  A    between atoms: _1  and  _3
REMARK    2  A    between atoms: _3  and  _4
REMARK    3  A    between atoms: _3  and  _6
REMARK    4  A    between atoms: _6  and  _7
REMARK    5  A    between atoms: _17  and  _19
REMARK    6  A    between atoms: _19  and  _20
REMARK    7  A    between atoms: _19  and  _22
REMARK    8  A    between atoms: _22  and  _23
REMARK    9  A    between atoms: _29  and  _31
REMARK   10  A    between atoms: _31  and  _32
REMARK   11  A    between atoms: _31  and  _34
REMARK   12  A    between atoms: _34  and  _35
REMARK   13  A    between atoms: _37  and  _39
REMARK   14  A    between atoms: _39  and  _40
REMARK   15  A    between atoms: _39  and  _42
REMARK   16  A    between atoms: _45  and  _47
REMARK   17  A    between atoms: _47  and  _48
REMARK   18  A    between atoms: _50  and  _52
REMARK   19  A    between atoms: _52  and  _53
REMARK   20  A    between atoms: _52  and  _55
REMARK   21  A    between atoms: _55  and  _56
REMARK   22  A    between atoms: _66  and  _68
REMARK   23  A    between atoms: _68  and  _69
REMARK   24  A    between atoms: _68  and  _71
REMARK   25  A    between atoms: _71  and  _72
REMARK   26  A    between atoms: _75  and  _77
REMARK   27  A    between atoms: _77  and  _78
REMARK   28  A    between atoms: _77  and  _80
REMARK   29  A    between atoms: _80  and  _81
REMARK   30  A    between atoms: _86  and  _87
REMARK   31  A    between atoms: _89  and  _91
REMARK   32  A    between atoms: _91  and  _92
REMARK   33  A    between atoms: _91  and  _94
REMARK   34  A    between atoms: _94  and  _95
REMARK   35  A    between atoms: _95  and  _96
REMARK   36  A    between atoms: _99  and  _101
REMARK   37  A    between atoms: _101  and  _102
REMARK   38  A    between atoms: _101  and  _104
REMARK   39  A    between atoms: _104  and  _105
REMARK   40  A    between atoms: _111  and  _113
REMARK   41  A    between atoms: _113  and  _114
REMARK   42  A    between atoms: _116  and  _118
REMARK   43  A    between atoms: _118  and  _119
REMARK   44  A    between atoms: _121  and  _123
REMARK   45  A    between atoms: _123  and  _124
REMARK   46  A    between atoms: _126  and  _128
REMARK   47  A    between atoms: _128  and  _129
REMARK   48  A    between atoms: _132  and  _134
REMARK   49  A    between atoms: _134  and  _135
REMARK   50  A    between atoms: _138  and  _140
REMARK   51  A    between atoms: _140  and  _141
REMARK   52  A    between atoms: _144  and  _146
REMARK   53  A    between atoms: _146  and  _147
REMARK   54  A    between atoms: _146  and  _149
REMARK   55  A    between atoms: _149  and  _150
REMARK   56  A    between atoms: _153  and  _155
REMARK   57  A    between atoms: _155  and  _156
REMARK   58  A    between atoms: _155  and  _158
REMARK   59  A    between atoms: _158  and  _159
REMARK   60  A    between atoms: _159  and  _160
REMARK   61  A    between atoms: _160  and  _161
REMARK   62  A    between atoms: _161  and  _162
REMARK   63  A    between atoms: _166  and  _168
REMARK   64  A    between atoms: _168  and  _169
REMARK   65  A    between atoms: _171  and  _173
REMARK   66  A    between atoms: _173  and  _174
REMARK   67  A    between atoms: _173  and  _176
REMARK   68  A    between atoms: _179  and  _181
REMARK   69  A    between atoms: _181  and  _182
REMARK   70  A    between atoms: _184  and  _186
REMARK   71  A    between atoms: _186  and  _187
REMARK   72  A    between atoms: _186  and  _189
REMARK   73  A    between atoms: _189  and  _190
REMARK   74  A    between atoms: _193  and  _195
REMARK   75  A    between atoms: _195  and  _196
REMARK   76  A    between atoms: _195  and  _198
REMARK   77  A    between atoms: _198  and  _199
REMARK   78  A    between atoms: _199  and  _200
REMARK   79  A    between atoms: _200  and  _201
REMARK   80  A    between atoms: _201  and  _202
REMARK   81  A    between atoms: _206  and  _208
REMARK   82  A    between atoms: _208  and  _209
REMARK   83  A    between atoms: _208  and  _211
REMARK   84  A    between atoms: _211  and  _212
REMARK   85  A    between atoms: _212  and  _213
REMARK   86  A    between atoms: _215  and  _217
REMARK   87  A    between atoms: _217  and  _218
REMARK   88  A    between atoms: _217  and  _220
REMARK   89  A    between atoms: _220  and  _221
REMARK   90  A    between atoms: _226  and  _227
REMARK   91  A    between atoms: _229  and  _231
REMARK   92  A    between atoms: _231  and  _232
REMARK   93  A    between atoms: _231  and  _234
REMARK   94  A    between atoms: _234  and  _235
REMARK   95  A    between atoms: _238  and  _240
REMARK   96  A    between atoms: _240  and  _241
REMARK   97  A    between atoms: _240  and  _243
REMARK   98  A    between atoms: _243  and  _244
REMARK   99  A    between atoms: _250  and  _252
REMARK  100  A    between atoms: _252  and  _253
REMARK  101  A    between atoms: _252  and  _255
REMARK  102  A    between atoms: _255  and  _256
REMARK  103  A    between atoms: _261  and  _262
REMARK  104  A    between atoms: _264  and  _266
REMARK  105  A    between atoms: _266  and  _267
REMARK  106  A    between atoms: _269  and  _271
REMARK  107  A    between atoms: _271  and  _272
REMARK  108  A    between atoms: _274  and  _276
REMARK  109  A    between atoms: _276  and  _277
REMARK  110  A    between atoms: _276  and  _279
REMARK  111  A    between atoms: _279  and  _280
REMARK  112  A    between atoms: _290  and  _292
REMARK  113  A    between atoms: _292  and  _293
REMARK  114  A    between atoms: _292  and  _295
REMARK  115  A    between atoms: _295  and  _296
REMARK  116  A    between atoms: _301  and  _303
REMARK  117  A    between atoms: _303  and  _304
REMARK  118  A    between atoms: _303  and  _306
REMARK  119  A    between atoms: _306  and  _307
REMARK  120  A    between atoms: _307  and  _308
REMARK  121  A    between atoms: _313  and  _315
REMARK  122  A    between atoms: _315  and  _316
REMARK  123  A    between atoms: _315  and  _318
REMARK  124  A    between atoms: _318  and  _319
REMARK  125  A    between atoms: _324  and  _325
REMARK  126  A    between atoms: _327  and  _329
REMARK  127  A    between atoms: _329  and  _330
REMARK  128  A    between atoms: _329  and  _332
REMARK  129  A    between atoms: _332  and  _333
REMARK  130  A    between atoms: _338  and  _339
REMARK  131  A    between atoms: _341  and  _343
REMARK  132  A    between atoms: _343  and  _344
REMARK  133  A    between atoms: _343  and  _346
REMARK  134  A    between atoms: _346  and  _347
REMARK  135  A    between atoms: _347  and  _348
REMARK  136  A    between atoms: _348  and  _349
REMARK  137  A    between atoms: _358  and  _360
REMARK  138  A    between atoms: _360  and  _361
REMARK  139  A    between atoms: _360  and  _363
REMARK  140  A    between atoms: _363  and  _364
REMARK  141  A    between atoms: _364  and  _365
REMARK  142  A    between atoms: _365  and  _366
REMARK  143  A    between atoms: _366  and  _367
REMARK  144  A    between atoms: _371  and  _373
REMARK  145  A    between atoms: _373  and  _374
REMARK  146  A    between atoms: _373  and  _376
REMARK  147  A    between atoms: _376  and  _377
REMARK  148  A    between atoms: _377  and  _378
REMARK  149  A    between atoms: _381  and  _383
REMARK  150  A    between atoms: _383  and  _384
REMARK  151  A    between atoms: _383  and  _386
REMARK  152  A    between atoms: _389  and  _391
REMARK  153  A    between atoms: _391  and  _392
REMARK  154  A    between atoms: _391  and  _394
REMARK  155  A    between atoms: _394  and  _395
REMARK                            x       y       z     vdW  Elec       q    Type
REMARK                         _______ _______ _______ _____ _____    ______ ____
ROOT
ATOM      1  O   HOH     1       9.715  -1.261  21.929  0.00  0.00    +0.000 OA
ENDROOT
TORSDOF 0
REMARK  Name = ../refined-set-2016/3arq/3arq_pocket.pdb
REMARK  155 active torsions:
REMARK  status: ('A' for Active; 'I' for Inactive)
REMARK    1  A    between atoms: _1  and  _3
REMARK    2  A    between atoms: _3  and  _4
REMARK    3  A    between atoms: _3  and  _6
REMARK    4  A    between atoms: _6  and  _7
REMARK    5  A    between atoms: _17  and  _19
REMARK    6  A    between atoms: _19  and  _20
REMARK    7  A    between atoms: _19  and  _22
REMARK    8  A    between atoms: _22  and  _23
REMARK    9  A    between atoms: _29  and  _31
REMARK   10  A    between atoms: _31  and  _32
REMARK   11  A    between atoms: _31  and  _34
REMARK   12  A    between atoms: _34  and  _35
REMARK   13  A    between atoms: _37  and  _39
REMARK   14  A    between atoms: _39  and  _40
REMARK   15  A    between atoms: _39  and  _42
REMARK   16  A    between atoms: _45  and  _47
REMARK   17  A    between atoms: _47  and  _48
REMARK   18  A    between atoms: _50  and  _52
REMARK   19  A    between atoms: _52  and  _53
REMARK   20  A    between atoms: _52  and  _55
REMARK   21  A    between atoms: _55  and  _56
REMARK   22  A    between atoms: _66  and  _68
REMARK   23  A    between atoms: _68  and  _69
REMARK   24  A    between atoms: _68  and  _71
REMARK   25  A    between atoms: _71  and  _72
REMARK   26  A    between atoms: _75  and  _77
REMARK   27  A    between atoms: _77  and  _78
REMARK   28  A    between atoms: _77  and  _80
REMARK   29  A    between atoms: _80  and  _81
REMARK   30  A    between atoms: _86  and  _87
REMARK   31  A    between atoms: _89  and  _91
REMARK   32  A    between atoms: _91  and  _92
REMARK   33  A    between atoms: _91  and  _94
REMARK   34  A    between atoms: _94  and  _95
REMARK   35  A    between atoms: _95  and  _96
REMARK   36  A    between atoms: _99  and  _101
REMARK   37  A    between atoms: _101  and  _102
REMARK   38  A    between atoms: _101  and  _104
REMARK   39  A    between atoms: _104  and  _105
REMARK   40  A    between atoms: _111  and  _113
REMARK   41  A    between atoms: _113  and  _114
REMARK   42  A    between atoms: _116  and  _118
REMARK   43  A    between atoms: _118  and  _119
REMARK   44  A    between atoms: _121  and  _123
REMARK   45  A    between atoms: _123  and  _124
REMARK   46  A    between atoms: _126  and  _128
REMARK   47  A    between atoms: _128  and  _129
REMARK   48  A    between atoms: _132  and  _134
REMARK   49  A    between atoms: _134  and  _135
REMARK   50  A    between atoms: _138  and  _140
REMARK   51  A    between atoms: _140  and  _141
REMARK   52  A    between atoms: _144  and  _146
REMARK   53  A    between atoms: _146  and  _147
REMARK   54  A    between atoms: _146  and  _149
REMARK   55  A    between atoms: _149  and  _150
REMARK   56  A    between atoms: _153  and  _155
REMARK   57  A    between atoms: _155  and  _156
REMARK   58  A    between atoms: _155  and  _158
REMARK   59  A    between atoms: _158  and  _159
REMARK   60  A    between atoms: _159  and  _160
REMARK   61  A    between atoms: _160  and  _161
REMARK   62  A    between atoms: _161  and  _162
REMARK   63  A    between atoms: _166  and  _168
REMARK   64  A    between atoms: _168  and  _169
REMARK   65  A    between atoms: _171  and  _173
REMARK   66  A    between atoms: _173  and  _174
REMARK   67  A    between atoms: _173  and  _176
REMARK   68  A    between atoms: _179  and  _181
REMARK   69  A    between atoms: _181  and  _182
REMARK   70  A    between atoms: _184  and  _186
REMARK   71  A    between atoms: _186  and  _187
REMARK   72  A    between atoms: _186  and  _189
REMARK   73  A    between atoms: _189  and  _190
REMARK   74  A    between atoms: _193  and  _195
REMARK   75  A    between atoms: _195  and  _196
REMARK   76  A    between atoms: _195  and  _198
REMARK   77  A    between atoms: _198  and  _199
REMARK   78  A    between atoms: _199  and  _200
REMARK   79  A    between atoms: _200  and  _201
REMARK   80  A    between atoms: _201  and  _202
REMARK   81  A    between atoms: _206  and  _208
REMARK   82  A    between atoms: _208  and  _209
REMARK   83  A    between atoms: _208  and  _211
REMARK   84  A    between atoms: _211  and  _212
REMARK   85  A    between atoms: _212  and  _213
REMARK   86  A    between atoms: _215  and  _217
REMARK   87  A    between atoms: _217  and  _218
REMARK   88  A    between atoms: _217  and  _220
REMARK   89  A    between atoms: _220  and  _221
REMARK   90  A    between atoms: _226  and  _227
REMARK   91  A    between atoms: _229  and  _231
REMARK   92  A    between atoms: _231  and  _232
REMARK   93  A    between atoms: _231  and  _234
REMARK   94  A    between atoms: _234  and  _235
REMARK   95  A    between atoms: _238  and  _240
REMARK   96  A    between atoms: _240  and  _241
REMARK   97  A    between atoms: _240  and  _243
REMARK   98  A    between atoms: _243  and  _244
REMARK   99  A    between atoms: _250  and  _252
REMARK  100  A    between atoms: _252  and  _253
REMARK  101  A    between atoms: _252  and  _255
REMARK  102  A    between atoms: _255  and  _256
REMARK  103  A    between atoms: _261  and  _262
REMARK  104  A    between atoms: _264  and  _266
REMARK  105  A    between atoms: _266  and  _267
REMARK  106  A    between atoms: _269  and  _271
REMARK  107  A    between atoms: _271  and  _272
REMARK  108  A    between atoms: _274  and  _276
REMARK  109  A    between atoms: _276  and  _277
REMARK  110  A    between atoms: _276  and  _279
REMARK  111  A    between atoms: _279  and  _280
REMARK  112  A    between atoms: _290  and  _292
REMARK  113  A    between atoms: _292  and  _293
REMARK  114  A    between atoms: _292  and  _295
REMARK  115  A    between atoms: _295  and  _296
REMARK  116  A    between atoms: _301  and  _303
REMARK  117  A    between atoms: _303  and  _304
REMARK  118  A    between atoms: _303  and  _306
REMARK  119  A    between atoms: _306  and  _307
REMARK  120  A    between atoms: _307  and  _308
REMARK  121  A    between atoms: _313  and  _315
REMARK  122  A    between atoms: _315  and  _316
REMARK  123  A    between atoms: _315  and  _318
REMARK  124  A    between atoms: _318  and  _319
REMARK  125  A    between atoms: _324  and  _325
REMARK  126  A    between atoms: _327  and  _329
REMARK  127  A    between atoms: _329  and  _330
REMARK  128  A    between atoms: _329  and  _332
REMARK  129  A    between atoms: _332  and  _333
REMARK  130  A    between atoms: _338  and  _339
REMARK  131  A    between atoms: _341  and  _343
REMARK  132  A    between atoms: _343  and  _344
REMARK  133  A    between atoms: _343  and  _346
REMARK  134  A    between atoms: _346  and  _347
REMARK  135  A    between atoms: _347  and  _348
REMARK  136  A    between atoms: _348  and  _349
REMARK  137  A    between atoms: _358  and  _360
REMARK  138  A    between atoms: _360  and  _361
REMARK  139  A    between atoms: _360  and  _363
REMARK  140  A    between atoms: _363  and  _364
REMARK  141  A    between atoms: _364  and  _365
REMARK  142  A    between atoms: _365  and  _366
REMARK  143  A    between atoms: _366  and  _367
REMARK  144  A    between atoms: _371  and  _373
REMARK  145  A    between atoms: _373  and  _374
REMARK  146  A    between atoms: _373  and  _376
REMARK  147  A    between atoms: _376  and  _377
REMARK  148  A    between atoms: _377  and  _378
REMARK  149  A    between atoms: _381  and  _383
REMARK  150  A    between atoms: _383  and  _384
REMARK  151  A    between atoms: _383  and  _386
REMARK  152  A    between atoms: _389  and  _391
REMARK  153  A    between atoms: _391  and  _392
REMARK  154  A    between atoms: _391  and  _394
REMARK  155  A    between atoms: _394  and  _395
REMARK                            x       y       z     vdW  Elec       q    Type
REMARK                         _______ _______ _______ _____ _____    ______ ____
ROOT
ATOM      1  O   HOH     1       7.762  -9.798  20.485  0.00  0.00    +0.000 OA
ENDROOT
TORSDOF 0
REMARK  Name = ../refined-set-2016/3arq/3arq_pocket.pdb
REMARK  155 active torsions:
REMARK  status: ('A' for Active; 'I' for Inactive)
REMARK    1  A    between atoms: _1  and  _3
REMARK    2  A    between atoms: _3  and  _4
REMARK    3  A    between atoms: _3  and  _6
REMARK    4  A    between atoms: _6  and  _7
REMARK    5  A    between atoms: _17  and  _19
REMARK    6  A    between atoms: _19  and  _20
REMARK    7  A    between atoms: _19  and  _22
REMARK    8  A    between atoms: _22  and  _23
REMARK    9  A    between atoms: _29  and  _31
REMARK   10  A    between atoms: _31  and  _32
REMARK   11  A    between atoms: _31  and  _34
REMARK   12  A    between atoms: _34  and  _35
REMARK   13  A    between atoms: _37  and  _39
REMARK   14  A    between atoms: _39  and  _40
REMARK   15  A    between atoms: _39  and  _42
REMARK   16  A    between atoms: _45  and  _47
REMARK   17  A    between atoms: _47  and  _48
REMARK   18  A    between atoms: _50  and  _52
REMARK   19  A    between atoms: _52  and  _53
REMARK   20  A    between atoms: _52  and  _55
REMARK   21  A    between atoms: _55  and  _56
REMARK   22  A    between atoms: _66  and  _68
REMARK   23  A    between atoms: _68  and  _69
REMARK   24  A    between atoms: _68  and  _71
REMARK   25  A    between atoms: _71  and  _72
REMARK   26  A    between atoms: _75  and  _77
REMARK   27  A    between atoms: _77  and  _78
REMARK   28  A    between atoms: _77  and  _80
REMARK   29  A    between atoms: _80  and  _81
REMARK   30  A    between atoms: _86  and  _87
REMARK   31  A    between atoms: _89  and  _91
REMARK   32  A    between atoms: _91  and  _92
REMARK   33  A    between atoms: _91  and  _94
REMARK   34  A    between atoms: _94  and  _95
REMARK   35  A    between atoms: _95  and  _96
REMARK   36  A    between atoms: _99  and  _101
REMARK   37  A    between atoms: _101  and  _102
REMARK   38  A    between atoms: _101  and  _104
REMARK   39  A    between atoms: _104  and  _105
REMARK   40  A    between atoms: _111  and  _113
REMARK   41  A    between atoms: _113  and  _114
REMARK   42  A    between atoms: _116  and  _118
REMARK   43  A    between atoms: _118  and  _119
REMARK   44  A    between atoms: _121  and  _123
REMARK   45  A    between atoms: _123  and  _124
REMARK   46  A    between atoms: _126  and  _128
REMARK   47  A    between atoms: _128  and  _129
REMARK   48  A    between atoms: _132  and  _134
REMARK   49  A    between atoms: _134  and  _135
REMARK   50  A    between atoms: _138  and  _140
REMARK   51  A    between atoms: _140  and  _141
REMARK   52  A    between atoms: _144  and  _146
REMARK   53  A    between atoms: _146  and  _147
REMARK   54  A    between atoms: _146  and  _149
REMARK   55  A    between atoms: _149  and  _150
REMARK   56  A    between atoms: _153  and  _155
REMARK   57  A    between atoms: _155  and  _156
REMARK   58  A    between atoms: _155  and  _158
REMARK   59  A    between atoms: _158  and  _159
REMARK   60  A    between atoms: _159  and  _160
REMARK   61  A    between atoms: _160  and  _161
REMARK   62  A    between atoms: _161  and  _162
REMARK   63  A    between atoms: _166  and  _168
REMARK   64  A    between atoms: _168  and  _169
REMARK   65  A    between atoms: _171  and  _173
REMARK   66  A    between atoms: _173  and  _174
REMARK   67  A    between atoms: _173  and  _176
REMARK   68  A    between atoms: _179  and  _181
REMARK   69  A    between atoms: _181  and  _182
REMARK   70  A    between atoms: _184  and  _186
REMARK   71  A    between atoms: _186  and  _187
REMARK   72  A    between atoms: _186  and  _189
REMARK   73  A    between atoms: _189  and  _190
REMARK   74  A    between atoms: _193  and  _195
REMARK   75  A    between atoms: _195  and  _196
REMARK   76  A    between atoms: _195  and  _198
REMARK   77  A    between atoms: _198  and  _199
REMARK   78  A    between atoms: _199  and  _200
REMARK   79  A    between atoms: _200  and  _201
REMARK   80  A    between atoms: _201  and  _202
REMARK   81  A    between atoms: _206  and  _208
REMARK   82  A    between atoms: _208  and  _209
REMARK   83  A    between atoms: _208  and  _211
REMARK   84  A    between atoms: _211  and  _212
REMARK   85  A    between atoms: _212  and  _213
REMARK   86  A    between atoms: _215  and  _217
REMARK   87  A    between atoms: _217  and  _218
REMARK   88  A    between atoms: _217  and  _220
REMARK   89  A    between atoms: _220  and  _221
REMARK   90  A    between atoms: _226  and  _227
REMARK   91  A    between atoms: _229  and  _231
REMARK   92  A    between atoms: _231  and  _232
REMARK   93  A    between atoms: _231  and  _234
REMARK   94  A    between atoms: _234  and  _235
REMARK   95  A    between atoms: _238  and  _240
REMARK   96  A    between atoms: _240  and  _241
REMARK   97  A    between atoms: _240  and  _243
REMARK   98  A    between atoms: _243  and  _244
REMARK   99  A    between atoms: _250  and  _252
REMARK  100  A    between atoms: _252  and  _253
REMARK  101  A    between atoms: _252  and  _255
REMARK  102  A    between atoms: _255  and  _256
REMARK  103  A    between atoms: _261  and  _262
REMARK  104  A    between atoms: _264  and  _266
REMARK  105  A    between atoms: _266  and  _267
REMARK  106  A    between atoms: _269  and  _271
REMARK  107  A    between atoms: _271  and  _272
REMARK  108  A    between atoms: _274  and  _276
REMARK  109  A    between atoms: _276  and  _277
REMARK  110  A    between atoms: _276  and  _279
REMARK  111  A    between atoms: _279  and  _280
REMARK  112  A    between atoms: _290  and  _292
REMARK  113  A    between atoms: _292  and  _293
REMARK  114  A    between atoms: _292  and  _295
REMARK  115  A    between atoms: _295  and  _296
REMARK  116  A    between atoms: _301  and  _303
REMARK  117  A    between atoms: _303  and  _304
REMARK  118  A    between atoms: _303  and  _306
REMARK  119  A    between atoms: _306  and  _307
REMARK  120  A    between atoms: _307  and  _308
REMARK  121  A    between atoms: _313  and  _315
REMARK  122  A    between atoms: _315  and  _316
REMARK  123  A    between atoms: _315  and  _318
REMARK  124  A    between atoms: _318  and  _319
REMARK  125  A    between atoms: _324  and  _325
REMARK  126  A    between atoms: _327  and  _329
REMARK  127  A    between atoms: _329  and  _330
REMARK  128  A    between atoms: _329  and  _332
REMARK  129  A    between atoms: _332  and  _333
REMARK  130  A    between atoms: _338  and  _339
REMARK  131  A    between atoms: _341  and  _343
REMARK  132  A    between atoms: _343  and  _344
REMARK  133  A    between atoms: _343  and  _346
REMARK  134  A    between atoms: _346  and  _347
REMARK  135  A    between atoms: _347  and  _348
REMARK  136  A    between atoms: _348  and  _349
REMARK  137  A    between atoms: _358  and  _360
REMARK  138  A    between atoms: _360  and  _361
REMARK  139  A    between atoms: _360  and  _363
REMARK  140  A    between atoms: _363  and  _364
REMARK  141  A    between atoms: _364  and  _365
REMARK  142  A    between atoms: _365  and  _366
REMARK  143  A    between atoms: _366  and  _367
REMARK  144  A    between atoms: _371  and  _373
REMARK  145  A    between atoms: _373  and  _374
REMARK  146  A    between atoms: _373  and  _376
REMARK  147  A    between atoms: _376  and  _377
REMARK  148  A    between atoms: _377  and  _378
REMARK  149  A    between atoms: _381  and  _383
REMARK  150  A    between atoms: _383  and  _384
REMARK  151  A    between atoms: _383  and  _386
REMARK  152  A    between atoms: _389  and  _391
REMARK  153  A    between atoms: _391  and  _392
REMARK  154  A    between atoms: _391  and  _394
REMARK  155  A    between atoms: _394  and  _395
REMARK                            x       y       z     vdW  Elec       q    Type
REMARK                         _______ _______ _______ _____ _____    ______ ____
ROOT
ATOM      1  O   HOH     1      24.637  -8.630  14.352  0.00  0.00    +0.000 OA
ENDROOT
TORSDOF 0
REMARK  Name = ../refined-set-2016/3arq/3arq_pocket.pdb
REMARK  155 active torsions:
REMARK  status: ('A' for Active; 'I' for Inactive)
REMARK    1  A    between atoms: _1  and  _3
REMARK    2  A    between atoms: _3  and  _4
REMARK    3  A    between atoms: _3  and  _6
REMARK    4  A    between atoms: _6  and  _7
REMARK    5  A    between atoms: _17  and  _19
REMARK    6  A    between atoms: _19  and  _20
REMARK    7  A    between atoms: _19  and  _22
REMARK    8  A    between atoms: _22  and  _23
REMARK    9  A    between atoms: _29  and  _31
REMARK   10  A    between atoms: _31  and  _32
REMARK   11  A    between atoms: _31  and  _34
REMARK   12  A    between atoms: _34  and  _35
REMARK   13  A    between atoms: _37  and  _39
REMARK   14  A    between atoms: _39  and  _40
REMARK   15  A    between atoms: _39  and  _42
REMARK   16  A    between atoms: _45  and  _47
REMARK   17  A    between atoms: _47  and  _48
REMARK   18  A    between atoms: _50  and  _52
REMARK   19  A    between atoms: _52  and  _53
REMARK   20  A    between atoms: _52  and  _55
REMARK   21  A    between atoms: _55  and  _56
REMARK   22  A    between atoms: _66  and  _68
REMARK   23  A    between atoms: _68  and  _69
REMARK   24  A    between atoms: _68  and  _71
REMARK   25  A    between atoms: _71  and  _72
REMARK   26  A    between atoms: _75  and  _77
REMARK   27  A    between atoms: _77  and  _78
REMARK   28  A    between atoms: _77  and  _80
REMARK   29  A    between atoms: _80  and  _81
REMARK   30  A    between atoms: _86  and  _87
REMARK   31  A    between atoms: _89  and  _91
REMARK   32  A    between atoms: _91  and  _92
REMARK   33  A    between atoms: _91  and  _94
REMARK   34  A    between atoms: _94  and  _95
REMARK   35  A    between atoms: _95  and  _96
REMARK   36  A    between atoms: _99  and  _101
REMARK   37  A    between atoms: _101  and  _102
REMARK   38  A    between atoms: _101  and  _104
REMARK   39  A    between atoms: _104  and  _105
REMARK   40  A    between atoms: _111  and  _113
REMARK   41  A    between atoms: _113  and  _114
REMARK   42  A    between atoms: _116  and  _118
REMARK   43  A    between atoms: _118  and  _119
REMARK   44  A    between atoms: _121  and  _123
REMARK   45  A    between atoms: _123  and  _124
REMARK   46  A    between atoms: _126  and  _128
REMARK   47  A    between atoms: _128  and  _129
REMARK   48  A    between atoms: _132  and  _134
REMARK   49  A    between atoms: _134  and  _135
REMARK   50  A    between atoms: _138  and  _140
REMARK   51  A    between atoms: _140  and  _141
REMARK   52  A    between atoms: _144  and  _146
REMARK   53  A    between atoms: _146  and  _147
REMARK   54  A    between atoms: _146  and  _149
REMARK   55  A    between atoms: _149  and  _150
REMARK   56  A    between atoms: _153  and  _155
REMARK   57  A    between atoms: _155  and  _156
REMARK   58  A    between atoms: _155  and  _158
REMARK   59  A    between atoms: _158  and  _159
REMARK   60  A    between atoms: _159  and  _160
REMARK   61  A    between atoms: _160  and  _161
REMARK   62  A    between atoms: _161  and  _162
REMARK   63  A    between atoms: _166  and  _168
REMARK   64  A    between atoms: _168  and  _169
REMARK   65  A    between atoms: _171  and  _173
REMARK   66  A    between atoms: _173  and  _174
REMARK   67  A    between atoms: _173  and  _176
REMARK   68  A    between atoms: _179  and  _181
REMARK   69  A    between atoms: _181  and  _182
REMARK   70  A    between atoms: _184  and  _186
REMARK   71  A    between atoms: _186  and  _187
REMARK   72  A    between atoms: _186  and  _189
REMARK   73  A    between atoms: _189  and  _190
REMARK   74  A    between atoms: _193  and  _195
REMARK   75  A    between atoms: _195  and  _196
REMARK   76  A    between atoms: _195  and  _198
REMARK   77  A    between atoms: _198  and  _199
REMARK   78  A    between atoms: _199  and  _200
REMARK   79  A    between atoms: _200  and  _201
REMARK   80  A    between atoms: _201  and  _202
REMARK   81  A    between atoms: _206  and  _208
REMARK   82  A    between atoms: _208  and  _209
REMARK   83  A    between atoms: _208  and  _211
REMARK   84  A    between atoms: _211  and  _212
REMARK   85  A    between atoms: _212  and  _213
REMARK   86  A    between atoms: _215  and  _217
REMARK   87  A    between atoms: _217  and  _218
REMARK   88  A    between atoms: _217  and  _220
REMARK   89  A    between atoms: _220  and  _221
REMARK   90  A    between atoms: _226  and  _227
REMARK   91  A    between atoms: _229  and  _231
REMARK   92  A    between atoms: _231  and  _232
REMARK   93  A    between atoms: _231  and  _234
REMARK   94  A    between atoms: _234  and  _235
REMARK   95  A    between atoms: _238  and  _240
REMARK   96  A    between atoms: _240  and  _241
REMARK   97  A    between atoms: _240  and  _243
REMARK   98  A    between atoms: _243  and  _244
REMARK   99  A    between atoms: _250  and  _252
REMARK  100  A    between atoms: _252  and  _253
REMARK  101  A    between atoms: _252  and  _255
REMARK  102  A    between atoms: _255  and  _256
REMARK  103  A    between atoms: _261  and  _262
REMARK  104  A    between atoms: _264  and  _266
REMARK  105  A    between atoms: _266  and  _267
REMARK  106  A    between atoms: _269  and  _271
REMARK  107  A    between atoms: _271  and  _272
REMARK  108  A    between atoms: _274  and  _276
REMARK  109  A    between atoms: _276  and  _277
REMARK  110  A    between atoms: _276  and  _279
REMARK  111  A    between atoms: _279  and  _280
REMARK  112  A    between atoms: _290  and  _292
REMARK  113  A    between atoms: _292  and  _293
REMARK  114  A    between atoms: _292  and  _295
REMARK  115  A    between atoms: _295  and  _296
REMARK  116  A    between atoms: _301  and  _303
REMARK  117  A    between atoms: _303  and  _304
REMARK  118  A    between atoms: _303  and  _306
REMARK  119  A    between atoms: _306  and  _307
REMARK  120  A    between atoms: _307  and  _308
REMARK  121  A    between atoms: _313  and  _315
REMARK  122  A    between atoms: _315  and  _316
REMARK  123  A    between atoms: _315  and  _318
REMARK  124  A    between atoms: _318  and  _319
REMARK  125  A    between atoms: _324  and  _325
REMARK  126  A    between atoms: _327  and  _329
REMARK  127  A    between atoms: _329  and  _330
REMARK  128  A    between atoms: _329  and  _332
REMARK  129  A    between atoms: _332  and  _333
REMARK  130  A    between atoms: _338  and  _339
REMARK  131  A    between atoms: _341  and  _343
REMARK  132  A    between atoms: _343  and  _344
REMARK  133  A    between atoms: _343  and  _346
REMARK  134  A    between atoms: _346  and  _347
REMARK  135  A    between atoms: _347  and  _348
REMARK  136  A    between atoms: _348  and  _349
REMARK  137  A    between atoms: _358  and  _360
REMARK  138  A    between atoms: _360  and  _361
REMARK  139  A    between atoms: _360  and  _363
REMARK  140  A    between atoms: _363  and  _364
REMARK  141  A    between atoms: _364  and  _365
REMARK  142  A    between atoms: _365  and  _366
REMARK  143  A    between atoms: _366  and  _367
REMARK  144  A    between atoms: _371  and  _373
REMARK  145  A    between atoms: _373  and  _374
REMARK  146  A    between atoms: _373  and  _376
REMARK  147  A    between atoms: _376  and  _377
REMARK  148  A    between atoms: _377  and  _378
REMARK  149  A    between atoms: _381  and  _383
REMARK  150  A    between atoms: _383  and  _384
REMARK  151  A    between atoms: _383  and  _386
REMARK  152  A    between atoms: _389  and  _391
REMARK  153  A    between atoms: _391  and  _392
REMARK  154  A    between atoms: _391  and  _394
REMARK  155  A    between atoms: _394  and  _395
REMARK                            x       y       z     vdW  Elec       q    Type
REMARK                         _______ _______ _______ _____ _____    ______ ____
ROOT
ATOM      1  O   HOH     1      19.920 -15.875  19.179  0.00  0.00    +0.000 OA
ENDROOT
TORSDOF 0
REMARK  Name = ../refined-set-2016/3arq/3arq_pocket.pdb
REMARK  155 active torsions:
REMARK  status: ('A' for Active; 'I' for Inactive)
REMARK    1  A    between atoms: _1  and  _3
REMARK    2  A    between atoms: _3  and  _4
REMARK    3  A    between atoms: _3  and  _6
REMARK    4  A    between atoms: _6  and  _7
REMARK    5  A    between atoms: _17  and  _19
REMARK    6  A    between atoms: _19  and  _20
REMARK    7  A    between atoms: _19  and  _22
REMARK    8  A    between atoms: _22  and  _23
REMARK    9  A    between atoms: _29  and  _31
REMARK   10  A    between atoms: _31  and  _32
REMARK   11  A    between atoms: _31  and  _34
REMARK   12  A    between atoms: _34  and  _35
REMARK   13  A    between atoms: _37  and  _39
REMARK   14  A    between atoms: _39  and  _40
REMARK   15  A    between atoms: _39  and  _42
REMARK   16  A    between atoms: _45  and  _47
REMARK   17  A    between atoms: _47  and  _48
REMARK   18  A    between atoms: _50  and  _52
REMARK   19  A    between atoms: _52  and  _53
REMARK   20  A    between atoms: _52  and  _55
REMARK   21  A    between atoms: _55  and  _56
REMARK   22  A    between atoms: _66  and  _68
REMARK   23  A    between atoms: _68  and  _69
REMARK   24  A    between atoms: _68  and  _71
REMARK   25  A    between atoms: _71  and  _72
REMARK   26  A    between atoms: _75  and  _77
REMARK   27  A    between atoms: _77  and  _78
REMARK   28  A    between atoms: _77  and  _80
REMARK   29  A    between atoms: _80  and  _81
REMARK   30  A    between atoms: _86  and  _87
REMARK   31  A    between atoms: _89  and  _91
REMARK   32  A    between atoms: _91  and  _92
REMARK   33  A    between atoms: _91  and  _94
REMARK   34  A    between atoms: _94  and  _95
REMARK   35  A    between atoms: _95  and  _96
REMARK   36  A    between atoms: _99  and  _101
REMARK   37  A    between atoms: _101  and  _102
REMARK   38  A    between atoms: _101  and  _104
REMARK   39  A    between atoms: _104  and  _105
REMARK   40  A    between atoms: _111  and  _113
REMARK   41  A    between atoms: _113  and  _114
REMARK   42  A    between atoms: _116  and  _118
REMARK   43  A    between atoms: _118  and  _119
REMARK   44  A    between atoms: _121  and  _123
REMARK   45  A    between atoms: _123  and  _124
REMARK   46  A    between atoms: _126  and  _128
REMARK   47  A    between atoms: _128  and  _129
REMARK   48  A    between atoms: _132  and  _134
REMARK   49  A    between atoms: _134  and  _135
REMARK   50  A    between atoms: _138  and  _140
REMARK   51  A    between atoms: _140  and  _141
REMARK   52  A    between atoms: _144  and  _146
REMARK   53  A    between atoms: _146  and  _147
REMARK   54  A    between atoms: _146  and  _149
REMARK   55  A    between atoms: _149  and  _150
REMARK   56  A    between atoms: _153  and  _155
REMARK   57  A    between atoms: _155  and  _156
REMARK   58  A    between atoms: _155  and  _158
REMARK   59  A    between atoms: _158  and  _159
REMARK   60  A    between atoms: _159  and  _160
REMARK   61  A    between atoms: _160  and  _161
REMARK   62  A    between atoms: _161  and  _162
REMARK   63  A    between atoms: _166  and  _168
REMARK   64  A    between atoms: _168  and  _169
REMARK   65  A    between atoms: _171  and  _173
REMARK   66  A    between atoms: _173  and  _174
REMARK   67  A    between atoms: _173  and  _176
REMARK   68  A    between atoms: _179  and  _181
REMARK   69  A    between atoms: _181  and  _182
REMARK   70  A    between atoms: _184  and  _186
REMARK   71  A    between atoms: _186  and  _187
REMARK   72  A    between atoms: _186  and  _189
REMARK   73  A    between atoms: _189  and  _190
REMARK   74  A    between atoms: _193  and  _195
REMARK   75  A    between atoms: _195  and  _196
REMARK   76  A    between atoms: _195  and  _198
REMARK   77  A    between atoms: _198  and  _199
REMARK   78  A    between atoms: _199  and  _200
REMARK   79  A    between atoms: _200  and  _201
REMARK   80  A    between atoms: _201  and  _202
REMARK   81  A    between atoms: _206  and  _208
REMARK   82  A    between atoms: _208  and  _209
REMARK   83  A    between atoms: _208  and  _211
REMARK   84  A    between atoms: _211  and  _212
REMARK   85  A    between atoms: _212  and  _213
REMARK   86  A    between atoms: _215  and  _217
REMARK   87  A    between atoms: _217  and  _218
REMARK   88  A    between atoms: _217  and  _220
REMARK   89  A    between atoms: _220  and  _221
REMARK   90  A    between atoms: _226  and  _227
REMARK   91  A    between atoms: _229  and  _231
REMARK   92  A    between atoms: _231  and  _232
REMARK   93  A    between atoms: _231  and  _234
REMARK   94  A    between atoms: _234  and  _235
REMARK   95  A    between atoms: _238  and  _240
REMARK   96  A    between atoms: _240  and  _241
REMARK   97  A    between atoms: _240  and  _243
REMARK   98  A    between atoms: _243  and  _244
REMARK   99  A    between atoms: _250  and  _252
REMARK  100  A    between atoms: _252  and  _253
REMARK  101  A    between atoms: _252  and  _255
REMARK  102  A    between atoms: _255  and  _256
REMARK  103  A    between atoms: _261  and  _262
REMARK  104  A    between atoms: _264  and  _266
REMARK  105  A    between atoms: _266  and  _267
REMARK  106  A    between atoms: _269  and  _271
REMARK  107  A    between atoms: _271  and  _272
REMARK  108  A    between atoms: _274  and  _276
REMARK  109  A    between atoms: _276  and  _277
REMARK  110  A    between atoms: _276  and  _279
REMARK  111  A    between atoms: _279  and  _280
REMARK  112  A    between atoms: _290  and  _292
REMARK  113  A    between atoms: _292  and  _293
REMARK  114  A    between atoms: _292  and  _295
REMARK  115  A    between atoms: _295  and  _296
REMARK  116  A    between atoms: _301  and  _303
REMARK  117  A    between atoms: _303  and  _304
REMARK  118  A    between atoms: _303  and  _306
REMARK  119  A    between atoms: _306  and  _307
REMARK  120  A    between atoms: _307  and  _308
REMARK  121  A    between atoms: _313  and  _315
REMARK  122  A    between atoms: _315  and  _316
REMARK  123  A    between atoms: _315  and  _318
REMARK  124  A    between atoms: _318  and  _319
REMARK  125  A    between atoms: _324  and  _325
REMARK  126  A    between atoms: _327  and  _329
REMARK  127  A    between atoms: _329  and  _330
REMARK  128  A    between atoms: _329  and  _332
REMARK  129  A    between atoms: _332  and  _333
REMARK  130  A    between atoms: _338  and  _339
REMARK  131  A    between atoms: _341  and  _343
REMARK  132  A    between atoms: _343  and  _344
REMARK  133  A    between atoms: _343  and  _346
REMARK  134  A    between atoms: _346  and  _347
REMARK  135  A    between atoms: _347  and  _348
REMARK  136  A    between atoms: _348  and  _349
REMARK  137  A    between atoms: _358  and  _360
REMARK  138  A    between atoms: _360  and  _361
REMARK  139  A    between atoms: _360  and  _363
REMARK  140  A    between atoms: _363  and  _364
REMARK  141  A    between atoms: _364  and  _365
REMARK  142  A    between atoms: _365  and  _366
REMARK  143  A    between atoms: _366  and  _367
REMARK  144  A    between atoms: _371  and  _373
REMARK  145  A    between atoms: _373  and  _374
REMARK  146  A    between atoms: _373  and  _376
REMARK  147  A    between atoms: _376  and  _377
REMARK  148  A    between atoms: _377  and  _378
REMARK  149  A    between atoms: _381  and  _383
REMARK  150  A    between atoms: _383  and  _384
REMARK  151  A    between atoms: _383  and  _386
REMARK  152  A    between atoms: _389  and  _391
REMARK  153  A    between atoms: _391  and  _392
REMARK  154  A    between atoms: _391  and  _394
REMARK  155  A    between atoms: _394  and  _395
REMARK                            x       y       z     vdW  Elec       q    Type
REMARK                         _______ _______ _______ _____ _____    ______ ____
ROOT
ATOM      1  O   HOH     1       6.718 -11.361  19.434  0.00  0.00    +0.000 OA
ENDROOT
TORSDOF 0
REMARK  Name = ../refined-set-2016/3arq/3arq_pocket.pdb
REMARK  155 active torsions:
REMARK  status: ('A' for Active; 'I' for Inactive)
REMARK    1  A    between atoms: _1  and  _3
REMARK    2  A    between atoms: _3  and  _4
REMARK    3  A    between atoms: _3  and  _6
REMARK    4  A    between atoms: _6  and  _7
REMARK    5  A    between atoms: _17  and  _19
REMARK    6  A    between atoms: _19  and  _20
REMARK    7  A    between atoms: _19  and  _22
REMARK    8  A    between atoms: _22  and  _23
REMARK    9  A    between atoms: _29  and  _31
REMARK   10  A    between atoms: _31  and  _32
REMARK   11  A    between atoms: _31  and  _34
REMARK   12  A    between atoms: _34  and  _35
REMARK   13  A    between atoms: _37  and  _39
REMARK   14  A    between atoms: _39  and  _40
REMARK   15  A    between atoms: _39  and  _42
REMARK   16  A    between atoms: _45  and  _47
REMARK   17  A    between atoms: _47  and  _48
REMARK   18  A    between atoms: _50  and  _52
REMARK   19  A    between atoms: _52  and  _53
REMARK   20  A    between atoms: _52  and  _55
REMARK   21  A    between atoms: _55  and  _56
REMARK   22  A    between atoms: _66  and  _68
REMARK   23  A    between atoms: _68  and  _69
REMARK   24  A    between atoms: _68  and  _71
REMARK   25  A    between atoms: _71  and  _72
REMARK   26  A    between atoms: _75  and  _77
REMARK   27  A    between atoms: _77  and  _78
REMARK   28  A    between atoms: _77  and  _80
REMARK   29  A    between atoms: _80  and  _81
REMARK   30  A    between atoms: _86  and  _87
REMARK   31  A    between atoms: _89  and  _91
REMARK   32  A    between atoms: _91  and  _92
REMARK   33  A    between atoms: _91  and  _94
REMARK   34  A    between atoms: _94  and  _95
REMARK   35  A    between atoms: _95  and  _96
REMARK   36  A    between atoms: _99  and  _101
REMARK   37  A    between atoms: _101  and  _102
REMARK   38  A    between atoms: _101  and  _104
REMARK   39  A    between atoms: _104  and  _105
REMARK   40  A    between atoms: _111  and  _113
REMARK   41  A    between atoms: _113  and  _114
REMARK   42  A    between atoms: _116  and  _118
REMARK   43  A    between atoms: _118  and  _119
REMARK   44  A    between atoms: _121  and  _123
REMARK   45  A    between atoms: _123  and  _124
REMARK   46  A    between atoms: _126  and  _128
REMARK   47  A    between atoms: _128  and  _129
REMARK   48  A    between atoms: _132  and  _134
REMARK   49  A    between atoms: _134  and  _135
REMARK   50  A    between atoms: _138  and  _140
REMARK   51  A    between atoms: _140  and  _141
REMARK   52  A    between atoms: _144  and  _146
REMARK   53  A    between atoms: _146  and  _147
REMARK   54  A    between atoms: _146  and  _149
REMARK   55  A    between atoms: _149  and  _150
REMARK   56  A    between atoms: _153  and  _155
REMARK   57  A    between atoms: _155  and  _156
REMARK   58  A    between atoms: _155  and  _158
REMARK   59  A    between atoms: _158  and  _159
REMARK   60  A    between atoms: _159  and  _160
REMARK   61  A    between atoms: _160  and  _161
REMARK   62  A    between atoms: _161  and  _162
REMARK   63  A    between atoms: _166  and  _168
REMARK   64  A    between atoms: _168  and  _169
REMARK   65  A    between atoms: _171  and  _173
REMARK   66  A    between atoms: _173  and  _174
REMARK   67  A    between atoms: _173  and  _176
REMARK   68  A    between atoms: _179  and  _181
REMARK   69  A    between atoms: _181  and  _182
REMARK   70  A    between atoms: _184  and  _186
REMARK   71  A    between atoms: _186  and  _187
REMARK   72  A    between atoms: _186  and  _189
REMARK   73  A    between atoms: _189  and  _190
REMARK   74  A    between atoms: _193  and  _195
REMARK   75  A    between atoms: _195  and  _196
REMARK   76  A    between atoms: _195  and  _198
REMARK   77  A    between atoms: _198  and  _199
REMARK   78  A    between atoms: _199  and  _200
REMARK   79  A    between atoms: _200  and  _201
REMARK   80  A    between atoms: _201  and  _202
REMARK   81  A    between atoms: _206  and  _208
REMARK   82  A    between atoms: _208  and  _209
REMARK   83  A    between atoms: _208  and  _211
REMARK   84  A    between atoms: _211  and  _212
REMARK   85  A    between atoms: _212  and  _213
REMARK   86  A    between atoms: _215  and  _217
REMARK   87  A    between atoms: _217  and  _218
REMARK   88  A    between atoms: _217  and  _220
REMARK   89  A    between atoms: _220  and  _221
REMARK   90  A    between atoms: _226  and  _227
REMARK   91  A    between atoms: _229  and  _231
REMARK   92  A    between atoms: _231  and  _232
REMARK   93  A    between atoms: _231  and  _234
REMARK   94  A    between atoms: _234  and  _235
REMARK   95  A    between atoms: _238  and  _240
REMARK   96  A    between atoms: _240  and  _241
REMARK   97  A    between atoms: _240  and  _243
REMARK   98  A    between atoms: _243  and  _244
REMARK   99  A    between atoms: _250  and  _252
REMARK  100  A    between atoms: _252  and  _253
REMARK  101  A    between atoms: _252  and  _255
REMARK  102  A    between atoms: _255  and  _256
REMARK  103  A    between atoms: _261  and  _262
REMARK  104  A    between atoms: _264  and  _266
REMARK  105  A    between atoms: _266  and  _267
REMARK  106  A    between atoms: _269  and  _271
REMARK  107  A    between atoms: _271  and  _272
REMARK  108  A    between atoms: _274  and  _276
REMARK  109  A    between atoms: _276  and  _277
REMARK  110  A    between atoms: _276  and  _279
REMARK  111  A    between atoms: _279  and  _280
REMARK  112  A    between atoms: _290  and  _292
REMARK  113  A    between atoms: _292  and  _293
REMARK  114  A    between atoms: _292  and  _295
REMARK  115  A    between atoms: _295  and  _296
REMARK  116  A    between atoms: _301  and  _303
REMARK  117  A    between atoms: _303  and  _304
REMARK  118  A    between atoms: _303  and  _306
REMARK  119  A    between atoms: _306  and  _307
REMARK  120  A    between atoms: _307  and  _308
REMARK  121  A    between atoms: _313  and  _315
REMARK  122  A    between atoms: _315  and  _316
REMARK  123  A    between atoms: _315  and  _318
REMARK  124  A    between atoms: _318  and  _319
REMARK  125  A    between atoms: _324  and  _325
REMARK  126  A    between atoms: _327  and  _329
REMARK  127  A    between atoms: _329  and  _330
REMARK  128  A    between atoms: _329  and  _332
REMARK  129  A    between atoms: _332  and  _333
REMARK  130  A    between atoms: _338  and  _339
REMARK  131  A    between atoms: _341  and  _343
REMARK  132  A    between atoms: _343  and  _344
REMARK  133  A    between atoms: _343  and  _346
REMARK  134  A    between atoms: _346  and  _347
REMARK  135  A    between atoms: _347  and  _348
REMARK  136  A    between atoms: _348  and  _349
REMARK  137  A    between atoms: _358  and  _360
REMARK  138  A    between atoms: _360  and  _361
REMARK  139  A    between atoms: _360  and  _363
REMARK  140  A    between atoms: _363  and  _364
REMARK  141  A    between atoms: _364  and  _365
REMARK  142  A    between atoms: _365  and  _366
REMARK  143  A    between atoms: _366  and  _367
REMARK  144  A    between atoms: _371  and  _373
REMARK  145  A    between atoms: _373  and  _374
REMARK  146  A    between atoms: _373  and  _376
REMARK  147  A    between atoms: _376  and  _377
REMARK  148  A    between atoms: _377  and  _378
REMARK  149  A    between atoms: _381  and  _383
REMARK  150  A    between atoms: _383  and  _384
REMARK  151  A    between atoms: _383  and  _386
REMARK  152  A    between atoms: _389  and  _391
REMARK  153  A    between atoms: _391  and  _392
REMARK  154  A    between atoms: _391  and  _394
REMARK  155  A    between atoms: _394  and  _395
REMARK                            x       y       z     vdW  Elec       q    Type
REMARK                         _______ _______ _______ _____ _____    ______ ____
ROOT
ATOM      1  O   HOH     1      12.401  -0.666  24.919  0.00  0.00    +0.000 OA
ENDROOT
TORSDOF 0
REMARK  Name = ../refined-set-2016/3arq/3arq_pocket.pdb
REMARK  155 active torsions:
REMARK  status: ('A' for Active; 'I' for Inactive)
REMARK    1  A    between atoms: _1  and  _3
REMARK    2  A    between atoms: _3  and  _4
REMARK    3  A    between atoms: _3  and  _6
REMARK    4  A    between atoms: _6  and  _7
REMARK    5  A    between atoms: _17  and  _19
REMARK    6  A    between atoms: _19  and  _20
REMARK    7  A    between atoms: _19  and  _22
REMARK    8  A    between atoms: _22  and  _23
REMARK    9  A    between atoms: _29  and  _31
REMARK   10  A    between atoms: _31  and  _32
REMARK   11  A    between atoms: _31  and  _34
REMARK   12  A    between atoms: _34  and  _35
REMARK   13  A    between atoms: _37  and  _39
REMARK   14  A    between atoms: _39  and  _40
REMARK   15  A    between atoms: _39  and  _42
REMARK   16  A    between atoms: _45  and  _47
REMARK   17  A    between atoms: _47  and  _48
REMARK   18  A    between atoms: _50  and  _52
REMARK   19  A    between atoms: _52  and  _53
REMARK   20  A    between atoms: _52  and  _55
REMARK   21  A    between atoms: _55  and  _56
REMARK   22  A    between atoms: _66  and  _68
REMARK   23  A    between atoms: _68  and  _69
REMARK   24  A    between atoms: _68  and  _71
REMARK   25  A    between atoms: _71  and  _72
REMARK   26  A    between atoms: _75  and  _77
REMARK   27  A    between atoms: _77  and  _78
REMARK   28  A    between atoms: _77  and  _80
REMARK   29  A    between atoms: _80  and  _81
REMARK   30  A    between atoms: _86  and  _87
REMARK   31  A    between atoms: _89  and  _91
REMARK   32  A    between atoms: _91  and  _92
REMARK   33  A    between atoms: _91  and  _94
REMARK   34  A    between atoms: _94  and  _95
REMARK   35  A    between atoms: _95  and  _96
REMARK   36  A    between atoms: _99  and  _101
REMARK   37  A    between atoms: _101  and  _102
REMARK   38  A    between atoms: _101  and  _104
REMARK   39  A    between atoms: _104  and  _105
REMARK   40  A    between atoms: _111  and  _113
REMARK   41  A    between atoms: _113  and  _114
REMARK   42  A    between atoms: _116  and  _118
REMARK   43  A    between atoms: _118  and  _119
REMARK   44  A    between atoms: _121  and  _123
REMARK   45  A    between atoms: _123  and  _124
REMARK   46  A    between atoms: _126  and  _128
REMARK   47  A    between atoms: _128  and  _129
REMARK   48  A    between atoms: _132  and  _134
REMARK   49  A    between atoms: _134  and  _135
REMARK   50  A    between atoms: _138  and  _140
REMARK   51  A    between atoms: _140  and  _141
REMARK   52  A    between atoms: _144  and  _146
REMARK   53  A    between atoms: _146  and  _147
REMARK   54  A    between atoms: _146  and  _149
REMARK   55  A    between atoms: _149  and  _150
REMARK   56  A    between atoms: _153  and  _155
REMARK   57  A    between atoms: _155  and  _156
REMARK   58  A    between atoms: _155  and  _158
REMARK   59  A    between atoms: _158  and  _159
REMARK   60  A    between atoms: _159  and  _160
REMARK   61  A    between atoms: _160  and  _161
REMARK   62  A    between atoms: _161  and  _162
REMARK   63  A    between atoms: _166  and  _168
REMARK   64  A    between atoms: _168  and  _169
REMARK   65  A    between atoms: _171  and  _173
REMARK   66  A    between atoms: _173  and  _174
REMARK   67  A    between atoms: _173  and  _176
REMARK   68  A    between atoms: _179  and  _181
REMARK   69  A    between atoms: _181  and  _182
REMARK   70  A    between atoms: _184  and  _186
REMARK   71  A    between atoms: _186  and  _187
REMARK   72  A    between atoms: _186  and  _189
REMARK   73  A    between atoms: _189  and  _190
REMARK   74  A    between atoms: _193  and  _195
REMARK   75  A    between atoms: _195  and  _196
REMARK   76  A    between atoms: _195  and  _198
REMARK   77  A    between atoms: _198  and  _199
REMARK   78  A    between atoms: _199  and  _200
REMARK   79  A    between atoms: _200  and  _201
REMARK   80  A    between atoms: _201  and  _202
REMARK   81  A    between atoms: _206  and  _208
REMARK   82  A    between atoms: _208  and  _209
REMARK   83  A    between atoms: _208  and  _211
REMARK   84  A    between atoms: _211  and  _212
REMARK   85  A    between atoms: _212  and  _213
REMARK   86  A    between atoms: _215  and  _217
REMARK   87  A    between atoms: _217  and  _218
REMARK   88  A    between atoms: _217  and  _220
REMARK   89  A    between atoms: _220  and  _221
REMARK   90  A    between atoms: _226  and  _227
REMARK   91  A    between atoms: _229  and  _231
REMARK   92  A    between atoms: _231  and  _232
REMARK   93  A    between atoms: _231  and  _234
REMARK   94  A    between atoms: _234  and  _235
REMARK   95  A    between atoms: _238  and  _240
REMARK   96  A    between atoms: _240  and  _241
REMARK   97  A    between atoms: _240  and  _243
REMARK   98  A    between atoms: _243  and  _244
REMARK   99  A    between atoms: _250  and  _252
REMARK  100  A    between atoms: _252  and  _253
REMARK  101  A    between atoms: _252  and  _255
REMARK  102  A    between atoms: _255  and  _256
REMARK  103  A    between atoms: _261  and  _262
REMARK  104  A    between atoms: _264  and  _266
REMARK  105  A    between atoms: _266  and  _267
REMARK  106  A    between atoms: _269  and  _271
REMARK  107  A    between atoms: _271  and  _272
REMARK  108  A    between atoms: _274  and  _276
REMARK  109  A    between atoms: _276  and  _277
REMARK  110  A    between atoms: _276  and  _279
REMARK  111  A    between atoms: _279  and  _280
REMARK  112  A    between atoms: _290  and  _292
REMARK  113  A    between atoms: _292  and  _293
REMARK  114  A    between atoms: _292  and  _295
REMARK  115  A    between atoms: _295  and  _296
REMARK  116  A    between atoms: _301  and  _303
REMARK  117  A    between atoms: _303  and  _304
REMARK  118  A    between atoms: _303  and  _306
REMARK  119  A    between atoms: _306  and  _307
REMARK  120  A    between atoms: _307  and  _308
REMARK  121  A    between atoms: _313  and  _315
REMARK  122  A    between atoms: _315  and  _316
REMARK  123  A    between atoms: _315  and  _318
REMARK  124  A    between atoms: _318  and  _319
REMARK  125  A    between atoms: _324  and  _325
REMARK  126  A    between atoms: _327  and  _329
REMARK  127  A    between atoms: _329  and  _330
REMARK  128  A    between atoms: _329  and  _332
REMARK  129  A    between atoms: _332  and  _333
REMARK  130  A    between atoms: _338  and  _339
REMARK  131  A    between atoms: _341  and  _343
REMARK  132  A    between atoms: _343  and  _344
REMARK  133  A    between atoms: _343  and  _346
REMARK  134  A    between atoms: _346  and  _347
REMARK  135  A    between atoms: _347  and  _348
REMARK  136  A    between atoms: _348  and  _349
REMARK  137  A    between atoms: _358  and  _360
REMARK  138  A    between atoms: _360  and  _361
REMARK  139  A    between atoms: _360  and  _363
REMARK  140  A    between atoms: _363  and  _364
REMARK  141  A    between atoms: _364  and  _365
REMARK  142  A    between atoms: _365  and  _366
REMARK  143  A    between atoms: _366  and  _367
REMARK  144  A    between atoms: _371  and  _373
REMARK  145  A    between atoms: _373  and  _374
REMARK  146  A    between atoms: _373  and  _376
REMARK  147  A    between atoms: _376  and  _377
REMARK  148  A    between atoms: _377  and  _378
REMARK  149  A    between atoms: _381  and  _383
REMARK  150  A    between atoms: _383  and  _384
REMARK  151  A    between atoms: _383  and  _386
REMARK  152  A    between atoms: _389  and  _391
REMARK  153  A    between atoms: _391  and  _392
REMARK  154  A    between atoms: _391  and  _394
REMARK  155  A    between atoms: _394  and  _395
REMARK                            x       y       z     vdW  Elec       q    Type
REMARK                         _______ _______ _______ _____ _____    ______ ____
ROOT
ATOM      1  O   HOH     1      11.056  -3.203  21.294  0.00  0.00    +0.000 OA
ENDROOT
TORSDOF 0
REMARK  Name = ../refined-set-2016/3arq/3arq_pocket.pdb
REMARK  155 active torsions:
REMARK  status: ('A' for Active; 'I' for Inactive)
REMARK    1  A    between atoms: _1  and  _3
REMARK    2  A    between atoms: _3  and  _4
REMARK    3  A    between atoms: _3  and  _6
REMARK    4  A    between atoms: _6  and  _7
REMARK    5  A    between atoms: _17  and  _19
REMARK    6  A    between atoms: _19  and  _20
REMARK    7  A    between atoms: _19  and  _22
REMARK    8  A    between atoms: _22  and  _23
REMARK    9  A    between atoms: _29  and  _31
REMARK   10  A    between atoms: _31  and  _32
REMARK   11  A    between atoms: _31  and  _34
REMARK   12  A    between atoms: _34  and  _35
REMARK   13  A    between atoms: _37  and  _39
REMARK   14  A    between atoms: _39  and  _40
REMARK   15  A    between atoms: _39  and  _42
REMARK   16  A    between atoms: _45  and  _47
REMARK   17  A    between atoms: _47  and  _48
REMARK   18  A    between atoms: _50  and  _52
REMARK   19  A    between atoms: _52  and  _53
REMARK   20  A    between atoms: _52  and  _55
REMARK   21  A    between atoms: _55  and  _56
REMARK   22  A    between atoms: _66  and  _68
REMARK   23  A    between atoms: _68  and  _69
REMARK   24  A    between atoms: _68  and  _71
REMARK   25  A    between atoms: _71  and  _72
REMARK   26  A    between atoms: _75  and  _77
REMARK   27  A    between atoms: _77  and  _78
REMARK   28  A    between atoms: _77  and  _80
REMARK   29  A    between atoms: _80  and  _81
REMARK   30  A    between atoms: _86  and  _87
REMARK   31  A    between atoms: _89  and  _91
REMARK   32  A    between atoms: _91  and  _92
REMARK   33  A    between atoms: _91  and  _94
REMARK   34  A    between atoms: _94  and  _95
REMARK   35  A    between atoms: _95  and  _96
REMARK   36  A    between atoms: _99  and  _101
REMARK   37  A    between atoms: _101  and  _102
REMARK   38  A    between atoms: _101  and  _104
REMARK   39  A    between atoms: _104  and  _105
REMARK   40  A    between atoms: _111  and  _113
REMARK   41  A    between atoms: _113  and  _114
REMARK   42  A    between atoms: _116  and  _118
REMARK   43  A    between atoms: _118  and  _119
REMARK   44  A    between atoms: _121  and  _123
REMARK   45  A    between atoms: _123  and  _124
REMARK   46  A    between atoms: _126  and  _128
REMARK   47  A    between atoms: _128  and  _129
REMARK   48  A    between atoms: _132  and  _134
REMARK   49  A    between atoms: _134  and  _135
REMARK   50  A    between atoms: _138  and  _140
REMARK   51  A    between atoms: _140  and  _141
REMARK   52  A    between atoms: _144  and  _146
REMARK   53  A    between atoms: _146  and  _147
REMARK   54  A    between atoms: _146  and  _149
REMARK   55  A    between atoms: _149  and  _150
REMARK   56  A    between atoms: _153  and  _155
REMARK   57  A    between atoms: _155  and  _156
REMARK   58  A    between atoms: _155  and  _158
REMARK   59  A    between atoms: _158  and  _159
REMARK   60  A    between atoms: _159  and  _160
REMARK   61  A    between atoms: _160  and  _161
REMARK   62  A    between atoms: _161  and  _162
REMARK   63  A    between atoms: _166  and  _168
REMARK   64  A    between atoms: _168  and  _169
REMARK   65  A    between atoms: _171  and  _173
REMARK   66  A    between atoms: _173  and  _174
REMARK   67  A    between atoms: _173  and  _176
REMARK   68  A    between atoms: _179  and  _181
REMARK   69  A    between atoms: _181  and  _182
REMARK   70  A    between atoms: _184  and  _186
REMARK   71  A    between atoms: _186  and  _187
REMARK   72  A    between atoms: _186  and  _189
REMARK   73  A    between atoms: _189  and  _190
REMARK   74  A    between atoms: _193  and  _195
REMARK   75  A    between atoms: _195  and  _196
REMARK   76  A    between atoms: _195  and  _198
REMARK   77  A    between atoms: _198  and  _199
REMARK   78  A    between atoms: _199  and  _200
REMARK   79  A    between atoms: _200  and  _201
REMARK   80  A    between atoms: _201  and  _202
REMARK   81  A    between atoms: _206  and  _208
REMARK   82  A    between atoms: _208  and  _209
REMARK   83  A    between atoms: _208  and  _211
REMARK   84  A    between atoms: _211  and  _212
REMARK   85  A    between atoms: _212  and  _213
REMARK   86  A    between atoms: _215  and  _217
REMARK   87  A    between atoms: _217  and  _218
REMARK   88  A    between atoms: _217  and  _220
REMARK   89  A    between atoms: _220  and  _221
REMARK   90  A    between atoms: _226  and  _227
REMARK   91  A    between atoms: _229  and  _231
REMARK   92  A    between atoms: _231  and  _232
REMARK   93  A    between atoms: _231  and  _234
REMARK   94  A    between atoms: _234  and  _235
REMARK   95  A    between atoms: _238  and  _240
REMARK   96  A    between atoms: _240  and  _241
REMARK   97  A    between atoms: _240  and  _243
REMARK   98  A    between atoms: _243  and  _244
REMARK   99  A    between atoms: _250  and  _252
REMARK  100  A    between atoms: _252  and  _253
REMARK  101  A    between atoms: _252  and  _255
REMARK  102  A    between atoms: _255  and  _256
REMARK  103  A    between atoms: _261  and  _262
REMARK  104  A    between atoms: _264  and  _266
REMARK  105  A    between atoms: _266  and  _267
REMARK  106  A    between atoms: _269  and  _271
REMARK  107  A    between atoms: _271  and  _272
REMARK  108  A    between atoms: _274  and  _276
REMARK  109  A    between atoms: _276  and  _277
REMARK  110  A    between atoms: _276  and  _279
REMARK  111  A    between atoms: _279  and  _280
REMARK  112  A    between atoms: _290  and  _292
REMARK  113  A    between atoms: _292  and  _293
REMARK  114  A    between atoms: _292  and  _295
REMARK  115  A    between atoms: _295  and  _296
REMARK  116  A    between atoms: _301  and  _303
REMARK  117  A    between atoms: _303  and  _304
REMARK  118  A    between atoms: _303  and  _306
REMARK  119  A    between atoms: _306  and  _307
REMARK  120  A    between atoms: _307  and  _308
REMARK  121  A    between atoms: _313  and  _315
REMARK  122  A    between atoms: _315  and  _316
REMARK  123  A    between atoms: _315  and  _318
REMARK  124  A    between atoms: _318  and  _319
REMARK  125  A    between atoms: _324  and  _325
REMARK  126  A    between atoms: _327  and  _329
REMARK  127  A    between atoms: _329  and  _330
REMARK  128  A    between atoms: _329  and  _332
REMARK  129  A    between atoms: _332  and  _333
REMARK  130  A    between atoms: _338  and  _339
REMARK  131  A    between atoms: _341  and  _343
REMARK  132  A    between atoms: _343  and  _344
REMARK  133  A    between atoms: _343  and  _346
REMARK  134  A    between atoms: _346  and  _347
REMARK  135  A    between atoms: _347  and  _348
REMARK  136  A    between atoms: _348  and  _349
REMARK  137  A    between atoms: _358  and  _360
REMARK  138  A    between atoms: _360  and  _361
REMARK  139  A    between atoms: _360  and  _363
REMARK  140  A    between atoms: _363  and  _364
REMARK  141  A    between atoms: _364  and  _365
REMARK  142  A    between atoms: _365  and  _366
REMARK  143  A    between atoms: _366  and  _367
REMARK  144  A    between atoms: _371  and  _373
REMARK  145  A    between atoms: _373  and  _374
REMARK  146  A    between atoms: _373  and  _376
REMARK  147  A    between atoms: _376  and  _377
REMARK  148  A    between atoms: _377  and  _378
REMARK  149  A    between atoms: _381  and  _383
REMARK  150  A    between atoms: _383  and  _384
REMARK  151  A    between atoms: _383  and  _386
REMARK  152  A    between atoms: _389  and  _391
REMARK  153  A    between atoms: _391  and  _392
REMARK  154  A    between atoms: _391  and  _394
REMARK  155  A    between atoms: _394  and  _395
REMARK                            x       y       z     vdW  Elec       q    Type
REMARK                         _______ _______ _______ _____ _____    ______ ____
ROOT
ATOM      1  O   HOH     1      21.188 -17.624  24.781  0.00  0.00    +0.000 OA
ENDROOT
TORSDOF 0
REMARK  Name = ../refined-set-2016/3arq/3arq_pocket.pdb
REMARK  155 active torsions:
REMARK  status: ('A' for Active; 'I' for Inactive)
REMARK    1  A    between atoms: _1  and  _3
REMARK    2  A    between atoms: _3  and  _4
REMARK    3  A    between atoms: _3  and  _6
REMARK    4  A    between atoms: _6  and  _7
REMARK    5  A    between atoms: _17  and  _19
REMARK    6  A    between atoms: _19  and  _20
REMARK    7  A    between atoms: _19  and  _22
REMARK    8  A    between atoms: _22  and  _23
REMARK    9  A    between atoms: _29  and  _31
REMARK   10  A    between atoms: _31  and  _32
REMARK   11  A    between atoms: _31  and  _34
REMARK   12  A    between atoms: _34  and  _35
REMARK   13  A    between atoms: _37  and  _39
REMARK   14  A    between atoms: _39  and  _40
REMARK   15  A    between atoms: _39  and  _42
REMARK   16  A    between atoms: _45  and  _47
REMARK   17  A    between atoms: _47  and  _48
REMARK   18  A    between atoms: _50  and  _52
REMARK   19  A    between atoms: _52  and  _53
REMARK   20  A    between atoms: _52  and  _55
REMARK   21  A    between atoms: _55  and  _56
REMARK   22  A    between atoms: _66  and  _68
REMARK   23  A    between atoms: _68  and  _69
REMARK   24  A    between atoms: _68  and  _71
REMARK   25  A    between atoms: _71  and  _72
REMARK   26  A    between atoms: _75  and  _77
REMARK   27  A    between atoms: _77  and  _78
REMARK   28  A    between atoms: _77  and  _80
REMARK   29  A    between atoms: _80  and  _81
REMARK   30  A    between atoms: _86  and  _87
REMARK   31  A    between atoms: _89  and  _91
REMARK   32  A    between atoms: _91  and  _92
REMARK   33  A    between atoms: _91  and  _94
REMARK   34  A    between atoms: _94  and  _95
REMARK   35  A    between atoms: _95  and  _96
REMARK   36  A    between atoms: _99  and  _101
REMARK   37  A    between atoms: _101  and  _102
REMARK   38  A    between atoms: _101  and  _104
REMARK   39  A    between atoms: _104  and  _105
REMARK   40  A    between atoms: _111  and  _113
REMARK   41  A    between atoms: _113  and  _114
REMARK   42  A    between atoms: _116  and  _118
REMARK   43  A    between atoms: _118  and  _119
REMARK   44  A    between atoms: _121  and  _123
REMARK   45  A    between atoms: _123  and  _124
REMARK   46  A    between atoms: _126  and  _128
REMARK   47  A    between atoms: _128  and  _129
REMARK   48  A    between atoms: _132  and  _134
REMARK   49  A    between atoms: _134  and  _135
REMARK   50  A    between atoms: _138  and  _140
REMARK   51  A    between atoms: _140  and  _141
REMARK   52  A    between atoms: _144  and  _146
REMARK   53  A    between atoms: _146  and  _147
REMARK   54  A    between atoms: _146  and  _149
REMARK   55  A    between atoms: _149  and  _150
REMARK   56  A    between atoms: _153  and  _155
REMARK   57  A    between atoms: _155  and  _156
REMARK   58  A    between atoms: _155  and  _158
REMARK   59  A    between atoms: _158  and  _159
REMARK   60  A    between atoms: _159  and  _160
REMARK   61  A    between atoms: _160  and  _161
REMARK   62  A    between atoms: _161  and  _162
REMARK   63  A    between atoms: _166  and  _168
REMARK   64  A    between atoms: _168  and  _169
REMARK   65  A    between atoms: _171  and  _173
REMARK   66  A    between atoms: _173  and  _174
REMARK   67  A    between atoms: _173  and  _176
REMARK   68  A    between atoms: _179  and  _181
REMARK   69  A    between atoms: _181  and  _182
REMARK   70  A    between atoms: _184  and  _186
REMARK   71  A    between atoms: _186  and  _187
REMARK   72  A    between atoms: _186  and  _189
REMARK   73  A    between atoms: _189  and  _190
REMARK   74  A    between atoms: _193  and  _195
REMARK   75  A    between atoms: _195  and  _196
REMARK   76  A    between atoms: _195  and  _198
REMARK   77  A    between atoms: _198  and  _199
REMARK   78  A    between atoms: _199  and  _200
REMARK   79  A    between atoms: _200  and  _201
REMARK   80  A    between atoms: _201  and  _202
REMARK   81  A    between atoms: _206  and  _208
REMARK   82  A    between atoms: _208  and  _209
REMARK   83  A    between atoms: _208  and  _211
REMARK   84  A    between atoms: _211  and  _212
REMARK   85  A    between atoms: _212  and  _213
REMARK   86  A    between atoms: _215  and  _217
REMARK   87  A    between atoms: _217  and  _218
REMARK   88  A    between atoms: _217  and  _220
REMARK   89  A    between atoms: _220  and  _221
REMARK   90  A    between atoms: _226  and  _227
REMARK   91  A    between atoms: _229  and  _231
REMARK   92  A    between atoms: _231  and  _232
REMARK   93  A    between atoms: _231  and  _234
REMARK   94  A    between atoms: _234  and  _235
REMARK   95  A    between atoms: _238  and  _240
REMARK   96  A    between atoms: _240  and  _241
REMARK   97  A    between atoms: _240  and  _243
REMARK   98  A    between atoms: _243  and  _244
REMARK   99  A    between atoms: _250  and  _252
REMARK  100  A    between atoms: _252  and  _253
REMARK  101  A    between atoms: _252  and  _255
REMARK  102  A    between atoms: _255  and  _256
REMARK  103  A    between atoms: _261  and  _262
REMARK  104  A    between atoms: _264  and  _266
REMARK  105  A    between atoms: _266  and  _267
REMARK  106  A    between atoms: _269  and  _271
REMARK  107  A    between atoms: _271  and  _272
REMARK  108  A    between atoms: _274  and  _276
REMARK  109  A    between atoms: _276  and  _277
REMARK  110  A    between atoms: _276  and  _279
REMARK  111  A    between atoms: _279  and  _280
REMARK  112  A    between atoms: _290  and  _292
REMARK  113  A    between atoms: _292  and  _293
REMARK  114  A    between atoms: _292  and  _295
REMARK  115  A    between atoms: _295  and  _296
REMARK  116  A    between atoms: _301  and  _303
REMARK  117  A    between atoms: _303  and  _304
REMARK  118  A    between atoms: _303  and  _306
REMARK  119  A    between atoms: _306  and  _307
REMARK  120  A    between atoms: _307  and  _308
REMARK  121  A    between atoms: _313  and  _315
REMARK  122  A    between atoms: _315  and  _316
REMARK  123  A    between atoms: _315  and  _318
REMARK  124  A    between atoms: _318  and  _319
REMARK  125  A    between atoms: _324  and  _325
REMARK  126  A    between atoms: _327  and  _329
REMARK  127  A    between atoms: _329  and  _330
REMARK  128  A    between atoms: _329  and  _332
REMARK  129  A    between atoms: _332  and  _333
REMARK  130  A    between atoms: _338  and  _339
REMARK  131  A    between atoms: _341  and  _343
REMARK  132  A    between atoms: _343  and  _344
REMARK  133  A    between atoms: _343  and  _346
REMARK  134  A    between atoms: _346  and  _347
REMARK  135  A    between atoms: _347  and  _348
REMARK  136  A    between atoms: _348  and  _349
REMARK  137  A    between atoms: _358  and  _360
REMARK  138  A    between atoms: _360  and  _361
REMARK  139  A    between atoms: _360  and  _363
REMARK  140  A    between atoms: _363  and  _364
REMARK  141  A    between atoms: _364  and  _365
REMARK  142  A    between atoms: _365  and  _366
REMARK  143  A    between atoms: _366  and  _367
REMARK  144  A    between atoms: _371  and  _373
REMARK  145  A    between atoms: _373  and  _374
REMARK  146  A    between atoms: _373  and  _376
REMARK  147  A    between atoms: _376  and  _377
REMARK  148  A    between atoms: _377  and  _378
REMARK  149  A    between atoms: _381  and  _383
REMARK  150  A    between atoms: _383  and  _384
REMARK  151  A    between atoms: _383  and  _386
REMARK  152  A    between atoms: _389  and  _391
REMARK  153  A    between atoms: _391  and  _392
REMARK  154  A    between atoms: _391  and  _394
REMARK  155  A    between atoms: _394  and  _395
REMARK                            x       y       z     vdW  Elec       q    Type
REMARK                         _______ _______ _______ _____ _____    ______ ____
ROOT
ATOM      1  O   HOH     1      11.781 -10.794  21.738  0.00  0.00    +0.000 OA
ENDROOT
TORSDOF 0
REMARK  Name = ../refined-set-2016/3arq/3arq_pocket.pdb
REMARK  155 active torsions:
REMARK  status: ('A' for Active; 'I' for Inactive)
REMARK    1  A    between atoms: _1  and  _3
REMARK    2  A    between atoms: _3  and  _4
REMARK    3  A    between atoms: _3  and  _6
REMARK    4  A    between atoms: _6  and  _7
REMARK    5  A    between atoms: _17  and  _19
REMARK    6  A    between atoms: _19  and  _20
REMARK    7  A    between atoms: _19  and  _22
REMARK    8  A    between atoms: _22  and  _23
REMARK    9  A    between atoms: _29  and  _31
REMARK   10  A    between atoms: _31  and  _32
REMARK   11  A    between atoms: _31  and  _34
REMARK   12  A    between atoms: _34  and  _35
REMARK   13  A    between atoms: _37  and  _39
REMARK   14  A    between atoms: _39  and  _40
REMARK   15  A    between atoms: _39  and  _42
REMARK   16  A    between atoms: _45  and  _47
REMARK   17  A    between atoms: _47  and  _48
REMARK   18  A    between atoms: _50  and  _52
REMARK   19  A    between atoms: _52  and  _53
REMARK   20  A    between atoms: _52  and  _55
REMARK   21  A    between atoms: _55  and  _56
REMARK   22  A    between atoms: _66  and  _68
REMARK   23  A    between atoms: _68  and  _69
REMARK   24  A    between atoms: _68  and  _71
REMARK   25  A    between atoms: _71  and  _72
REMARK   26  A    between atoms: _75  and  _77
REMARK   27  A    between atoms: _77  and  _78
REMARK   28  A    between atoms: _77  and  _80
REMARK   29  A    between atoms: _80  and  _81
REMARK   30  A    between atoms: _86  and  _87
REMARK   31  A    between atoms: _89  and  _91
REMARK   32  A    between atoms: _91  and  _92
REMARK   33  A    between atoms: _91  and  _94
REMARK   34  A    between atoms: _94  and  _95
REMARK   35  A    between atoms: _95  and  _96
REMARK   36  A    between atoms: _99  and  _101
REMARK   37  A    between atoms: _101  and  _102
REMARK   38  A    between atoms: _101  and  _104
REMARK   39  A    between atoms: _104  and  _105
REMARK   40  A    between atoms: _111  and  _113
REMARK   41  A    between atoms: _113  and  _114
REMARK   42  A    between atoms: _116  and  _118
REMARK   43  A    between atoms: _118  and  _119
REMARK   44  A    between atoms: _121  and  _123
REMARK   45  A    between atoms: _123  and  _124
REMARK   46  A    between atoms: _126  and  _128
REMARK   47  A    between atoms: _128  and  _129
REMARK   48  A    between atoms: _132  and  _134
REMARK   49  A    between atoms: _134  and  _135
REMARK   50  A    between atoms: _138  and  _140
REMARK   51  A    between atoms: _140  and  _141
REMARK   52  A    between atoms: _144  and  _146
REMARK   53  A    between atoms: _146  and  _147
REMARK   54  A    between atoms: _146  and  _149
REMARK   55  A    between atoms: _149  and  _150
REMARK   56  A    between atoms: _153  and  _155
REMARK   57  A    between atoms: _155  and  _156
REMARK   58  A    between atoms: _155  and  _158
REMARK   59  A    between atoms: _158  and  _159
REMARK   60  A    between atoms: _159  and  _160
REMARK   61  A    between atoms: _160  and  _161
REMARK   62  A    between atoms: _161  and  _162
REMARK   63  A    between atoms: _166  and  _168
REMARK   64  A    between atoms: _168  and  _169
REMARK   65  A    between atoms: _171  and  _173
REMARK   66  A    between atoms: _173  and  _174
REMARK   67  A    between atoms: _173  and  _176
REMARK   68  A    between atoms: _179  and  _181
REMARK   69  A    between atoms: _181  and  _182
REMARK   70  A    between atoms: _184  and  _186
REMARK   71  A    between atoms: _186  and  _187
REMARK   72  A    between atoms: _186  and  _189
REMARK   73  A    between atoms: _189  and  _190
REMARK   74  A    between atoms: _193  and  _195
REMARK   75  A    between atoms: _195  and  _196
REMARK   76  A    between atoms: _195  and  _198
REMARK   77  A    between atoms: _198  and  _199
REMARK   78  A    between atoms: _199  and  _200
REMARK   79  A    between atoms: _200  and  _201
REMARK   80  A    between atoms: _201  and  _202
REMARK   81  A    between atoms: _206  and  _208
REMARK   82  A    between atoms: _208  and  _209
REMARK   83  A    between atoms: _208  and  _211
REMARK   84  A    between atoms: _211  and  _212
REMARK   85  A    between atoms: _212  and  _213
REMARK   86  A    between atoms: _215  and  _217
REMARK   87  A    between atoms: _217  and  _218
REMARK   88  A    between atoms: _217  and  _220
REMARK   89  A    between atoms: _220  and  _221
REMARK   90  A    between atoms: _226  and  _227
REMARK   91  A    between atoms: _229  and  _231
REMARK   92  A    between atoms: _231  and  _232
REMARK   93  A    between atoms: _231  and  _234
REMARK   94  A    between atoms: _234  and  _235
REMARK   95  A    between atoms: _238  and  _240
REMARK   96  A    between atoms: _240  and  _241
REMARK   97  A    between atoms: _240  and  _243
REMARK   98  A    between atoms: _243  and  _244
REMARK   99  A    between atoms: _250  and  _252
REMARK  100  A    between atoms: _252  and  _253
REMARK  101  A    between atoms: _252  and  _255
REMARK  102  A    between atoms: _255  and  _256
REMARK  103  A    between atoms: _261  and  _262
REMARK  104  A    between atoms: _264  and  _266
REMARK  105  A    between atoms: _266  and  _267
REMARK  106  A    between atoms: _269  and  _271
REMARK  107  A    between atoms: _271  and  _272
REMARK  108  A    between atoms: _274  and  _276
REMARK  109  A    between atoms: _276  and  _277
REMARK  110  A    between atoms: _276  and  _279
REMARK  111  A    between atoms: _279  and  _280
REMARK  112  A    between atoms: _290  and  _292
REMARK  113  A    between atoms: _292  and  _293
REMARK  114  A    between atoms: _292  and  _295
REMARK  115  A    between atoms: _295  and  _296
REMARK  116  A    between atoms: _301  and  _303
REMARK  117  A    between atoms: _303  and  _304
REMARK  118  A    between atoms: _303  and  _306
REMARK  119  A    between atoms: _306  and  _307
REMARK  120  A    between atoms: _307  and  _308
REMARK  121  A    between atoms: _313  and  _315
REMARK  122  A    between atoms: _315  and  _316
REMARK  123  A    between atoms: _315  and  _318
REMARK  124  A    between atoms: _318  and  _319
REMARK  125  A    between atoms: _324  and  _325
REMARK  126  A    between atoms: _327  and  _329
REMARK  127  A    between atoms: _329  and  _330
REMARK  128  A    between atoms: _329  and  _332
REMARK  129  A    between atoms: _332  and  _333
REMARK  130  A    between atoms: _338  and  _339
REMARK  131  A    between atoms: _341  and  _343
REMARK  132  A    between atoms: _343  and  _344
REMARK  133  A    between atoms: _343  and  _346
REMARK  134  A    between atoms: _346  and  _347
REMARK  135  A    between atoms: _347  and  _348
REMARK  136  A    between atoms: _348  and  _349
REMARK  137  A    between atoms: _358  and  _360
REMARK  138  A    between atoms: _360  and  _361
REMARK  139  A    between atoms: _360  and  _363
REMARK  140  A    between atoms: _363  and  _364
REMARK  141  A    between atoms: _364  and  _365
REMARK  142  A    between atoms: _365  and  _366
REMARK  143  A    between atoms: _366  and  _367
REMARK  144  A    between atoms: _371  and  _373
REMARK  145  A    between atoms: _373  and  _374
REMARK  146  A    between atoms: _373  and  _376
REMARK  147  A    between atoms: _376  and  _377
REMARK  148  A    between atoms: _377  and  _378
REMARK  149  A    between atoms: _381  and  _383
REMARK  150  A    between atoms: _383  and  _384
REMARK  151  A    between atoms: _383  and  _386
REMARK  152  A    between atoms: _389  and  _391
REMARK  153  A    between atoms: _391  and  _392
REMARK  154  A    between atoms: _391  and  _394
REMARK  155  A    between atoms: _394  and  _395
REMARK                            x       y       z     vdW  Elec       q    Type
REMARK                         _______ _______ _______ _____ _____    ______ ____
ROOT
ATOM      1  O   HOH     1       9.565 -10.137  24.432  0.00  0.00    +0.000 OA
ENDROOT
TORSDOF 0
REMARK  Name = ../refined-set-2016/3arq/3arq_pocket.pdb
REMARK  155 active torsions:
REMARK  status: ('A' for Active; 'I' for Inactive)
REMARK    1  A    between atoms: _1  and  _3
REMARK    2  A    between atoms: _3  and  _4
REMARK    3  A    between atoms: _3  and  _6
REMARK    4  A    between atoms: _6  and  _7
REMARK    5  A    between atoms: _17  and  _19
REMARK    6  A    between atoms: _19  and  _20
REMARK    7  A    between atoms: _19  and  _22
REMARK    8  A    between atoms: _22  and  _23
REMARK    9  A    between atoms: _29  and  _31
REMARK   10  A    between atoms: _31  and  _32
REMARK   11  A    between atoms: _31  and  _34
REMARK   12  A    between atoms: _34  and  _35
REMARK   13  A    between atoms: _37  and  _39
REMARK   14  A    between atoms: _39  and  _40
REMARK   15  A    between atoms: _39  and  _42
REMARK   16  A    between atoms: _45  and  _47
REMARK   17  A    between atoms: _47  and  _48
REMARK   18  A    between atoms: _50  and  _52
REMARK   19  A    between atoms: _52  and  _53
REMARK   20  A    between atoms: _52  and  _55
REMARK   21  A    between atoms: _55  and  _56
REMARK   22  A    between atoms: _66  and  _68
REMARK   23  A    between atoms: _68  and  _69
REMARK   24  A    between atoms: _68  and  _71
REMARK   25  A    between atoms: _71  and  _72
REMARK   26  A    between atoms: _75  and  _77
REMARK   27  A    between atoms: _77  and  _78
REMARK   28  A    between atoms: _77  and  _80
REMARK   29  A    between atoms: _80  and  _81
REMARK   30  A    between atoms: _86  and  _87
REMARK   31  A    between atoms: _89  and  _91
REMARK   32  A    between atoms: _91  and  _92
REMARK   33  A    between atoms: _91  and  _94
REMARK   34  A    between atoms: _94  and  _95
REMARK   35  A    between atoms: _95  and  _96
REMARK   36  A    between atoms: _99  and  _101
REMARK   37  A    between atoms: _101  and  _102
REMARK   38  A    between atoms: _101  and  _104
REMARK   39  A    between atoms: _104  and  _105
REMARK   40  A    between atoms: _111  and  _113
REMARK   41  A    between atoms: _113  and  _114
REMARK   42  A    between atoms: _116  and  _118
REMARK   43  A    between atoms: _118  and  _119
REMARK   44  A    between atoms: _121  and  _123
REMARK   45  A    between atoms: _123  and  _124
REMARK   46  A    between atoms: _126  and  _128
REMARK   47  A    between atoms: _128  and  _129
REMARK   48  A    between atoms: _132  and  _134
REMARK   49  A    between atoms: _134  and  _135
REMARK   50  A    between atoms: _138  and  _140
REMARK   51  A    between atoms: _140  and  _141
REMARK   52  A    between atoms: _144  and  _146
REMARK   53  A    between atoms: _146  and  _147
REMARK   54  A    between atoms: _146  and  _149
REMARK   55  A    between atoms: _149  and  _150
REMARK   56  A    between atoms: _153  and  _155
REMARK   57  A    between atoms: _155  and  _156
REMARK   58  A    between atoms: _155  and  _158
REMARK   59  A    between atoms: _158  and  _159
REMARK   60  A    between atoms: _159  and  _160
REMARK   61  A    between atoms: _160  and  _161
REMARK   62  A    between atoms: _161  and  _162
REMARK   63  A    between atoms: _166  and  _168
REMARK   64  A    between atoms: _168  and  _169
REMARK   65  A    between atoms: _171  and  _173
REMARK   66  A    between atoms: _173  and  _174
REMARK   67  A    between atoms: _173  and  _176
REMARK   68  A    between atoms: _179  and  _181
REMARK   69  A    between atoms: _181  and  _182
REMARK   70  A    between atoms: _184  and  _186
REMARK   71  A    between atoms: _186  and  _187
REMARK   72  A    between atoms: _186  and  _189
REMARK   73  A    between atoms: _189  and  _190
REMARK   74  A    between atoms: _193  and  _195
REMARK   75  A    between atoms: _195  and  _196
REMARK   76  A    between atoms: _195  and  _198
REMARK   77  A    between atoms: _198  and  _199
REMARK   78  A    between atoms: _199  and  _200
REMARK   79  A    between atoms: _200  and  _201
REMARK   80  A    between atoms: _201  and  _202
REMARK   81  A    between atoms: _206  and  _208
REMARK   82  A    between atoms: _208  and  _209
REMARK   83  A    between atoms: _208  and  _211
REMARK   84  A    between atoms: _211  and  _212
REMARK   85  A    between atoms: _212  and  _213
REMARK   86  A    between atoms: _215  and  _217
REMARK   87  A    between atoms: _217  and  _218
REMARK   88  A    between atoms: _217  and  _220
REMARK   89  A    between atoms: _220  and  _221
REMARK   90  A    between atoms: _226  and  _227
REMARK   91  A    between atoms: _229  and  _231
REMARK   92  A    between atoms: _231  and  _232
REMARK   93  A    between atoms: _231  and  _234
REMARK   94  A    between atoms: _234  and  _235
REMARK   95  A    between atoms: _238  and  _240
REMARK   96  A    between atoms: _240  and  _241
REMARK   97  A    between atoms: _240  and  _243
REMARK   98  A    between atoms: _243  and  _244
REMARK   99  A    between atoms: _250  and  _252
REMARK  100  A    between atoms: _252  and  _253
REMARK  101  A    between atoms: _252  and  _255
REMARK  102  A    between atoms: _255  and  _256
REMARK  103  A    between atoms: _261  and  _262
REMARK  104  A    between atoms: _264  and  _266
REMARK  105  A    between atoms: _266  and  _267
REMARK  106  A    between atoms: _269  and  _271
REMARK  107  A    between atoms: _271  and  _272
REMARK  108  A    between atoms: _274  and  _276
REMARK  109  A    between atoms: _276  and  _277
REMARK  110  A    between atoms: _276  and  _279
REMARK  111  A    between atoms: _279  and  _280
REMARK  112  A    between atoms: _290  and  _292
REMARK  113  A    between atoms: _292  and  _293
REMARK  114  A    between atoms: _292  and  _295
REMARK  115  A    between atoms: _295  and  _296
REMARK  116  A    between atoms: _301  and  _303
REMARK  117  A    between atoms: _303  and  _304
REMARK  118  A    between atoms: _303  and  _306
REMARK  119  A    between atoms: _306  and  _307
REMARK  120  A    between atoms: _307  and  _308
REMARK  121  A    between atoms: _313  and  _315
REMARK  122  A    between atoms: _315  and  _316
REMARK  123  A    between atoms: _315  and  _318
REMARK  124  A    between atoms: _318  and  _319
REMARK  125  A    between atoms: _324  and  _325
REMARK  126  A    between atoms: _327  and  _329
REMARK  127  A    between atoms: _329  and  _330
REMARK  128  A    between atoms: _329  and  _332
REMARK  129  A    between atoms: _332  and  _333
REMARK  130  A    between atoms: _338  and  _339
REMARK  131  A    between atoms: _341  and  _343
REMARK  132  A    between atoms: _343  and  _344
REMARK  133  A    between atoms: _343  and  _346
REMARK  134  A    between atoms: _346  and  _347
REMARK  135  A    between atoms: _347  and  _348
REMARK  136  A    between atoms: _348  and  _349
REMARK  137  A    between atoms: _358  and  _360
REMARK  138  A    between atoms: _360  and  _361
REMARK  139  A    between atoms: _360  and  _363
REMARK  140  A    between atoms: _363  and  _364
REMARK  141  A    between atoms: _364  and  _365
REMARK  142  A    between atoms: _365  and  _366
REMARK  143  A    between atoms: _366  and  _367
REMARK  144  A    between atoms: _371  and  _373
REMARK  145  A    between atoms: _373  and  _374
REMARK  146  A    between atoms: _373  and  _376
REMARK  147  A    between atoms: _376  and  _377
REMARK  148  A    between atoms: _377  and  _378
REMARK  149  A    between atoms: _381  and  _383
REMARK  150  A    between atoms: _383  and  _384
REMARK  151  A    between atoms: _383  and  _386
REMARK  152  A    between atoms: _389  and  _391
REMARK  153  A    between atoms: _391  and  _392
REMARK  154  A    between atoms: _391  and  _394
REMARK  155  A    between atoms: _394  and  _395
REMARK                            x       y       z     vdW  Elec       q    Type
REMARK                         _______ _______ _______ _____ _____    ______ ____
ROOT
ATOM      1  O   HOH     1      16.911  -4.973  23.502  0.00  0.00    +0.000 OA
ENDROOT
TORSDOF 0
REMARK  Name = ../refined-set-2016/3arq/3arq_pocket.pdb
REMARK  155 active torsions:
REMARK  status: ('A' for Active; 'I' for Inactive)
REMARK    1  A    between atoms: _1  and  _3
REMARK    2  A    between atoms: _3  and  _4
REMARK    3  A    between atoms: _3  and  _6
REMARK    4  A    between atoms: _6  and  _7
REMARK    5  A    between atoms: _17  and  _19
REMARK    6  A    between atoms: _19  and  _20
REMARK    7  A    between atoms: _19  and  _22
REMARK    8  A    between atoms: _22  and  _23
REMARK    9  A    between atoms: _29  and  _31
REMARK   10  A    between atoms: _31  and  _32
REMARK   11  A    between atoms: _31  and  _34
REMARK   12  A    between atoms: _34  and  _35
REMARK   13  A    between atoms: _37  and  _39
REMARK   14  A    between atoms: _39  and  _40
REMARK   15  A    between atoms: _39  and  _42
REMARK   16  A    between atoms: _45  and  _47
REMARK   17  A    between atoms: _47  and  _48
REMARK   18  A    between atoms: _50  and  _52
REMARK   19  A    between atoms: _52  and  _53
REMARK   20  A    between atoms: _52  and  _55
REMARK   21  A    between atoms: _55  and  _56
REMARK   22  A    between atoms: _66  and  _68
REMARK   23  A    between atoms: _68  and  _69
REMARK   24  A    between atoms: _68  and  _71
REMARK   25  A    between atoms: _71  and  _72
REMARK   26  A    between atoms: _75  and  _77
REMARK   27  A    between atoms: _77  and  _78
REMARK   28  A    between atoms: _77  and  _80
REMARK   29  A    between atoms: _80  and  _81
REMARK   30  A    between atoms: _86  and  _87
REMARK   31  A    between atoms: _89  and  _91
REMARK   32  A    between atoms: _91  and  _92
REMARK   33  A    between atoms: _91  and  _94
REMARK   34  A    between atoms: _94  and  _95
REMARK   35  A    between atoms: _95  and  _96
REMARK   36  A    between atoms: _99  and  _101
REMARK   37  A    between atoms: _101  and  _102
REMARK   38  A    between atoms: _101  and  _104
REMARK   39  A    between atoms: _104  and  _105
REMARK   40  A    between atoms: _111  and  _113
REMARK   41  A    between atoms: _113  and  _114
REMARK   42  A    between atoms: _116  and  _118
REMARK   43  A    between atoms: _118  and  _119
REMARK   44  A    between atoms: _121  and  _123
REMARK   45  A    between atoms: _123  and  _124
REMARK   46  A    between atoms: _126  and  _128
REMARK   47  A    between atoms: _128  and  _129
REMARK   48  A    between atoms: _132  and  _134
REMARK   49  A    between atoms: _134  and  _135
REMARK   50  A    between atoms: _138  and  _140
REMARK   51  A    between atoms: _140  and  _141
REMARK   52  A    between atoms: _144  and  _146
REMARK   53  A    between atoms: _146  and  _147
REMARK   54  A    between atoms: _146  and  _149
REMARK   55  A    between atoms: _149  and  _150
REMARK   56  A    between atoms: _153  and  _155
REMARK   57  A    between atoms: _155  and  _156
REMARK   58  A    between atoms: _155  and  _158
REMARK   59  A    between atoms: _158  and  _159
REMARK   60  A    between atoms: _159  and  _160
REMARK   61  A    between atoms: _160  and  _161
REMARK   62  A    between atoms: _161  and  _162
REMARK   63  A    between atoms: _166  and  _168
REMARK   64  A    between atoms: _168  and  _169
REMARK   65  A    between atoms: _171  and  _173
REMARK   66  A    between atoms: _173  and  _174
REMARK   67  A    between atoms: _173  and  _176
REMARK   68  A    between atoms: _179  and  _181
REMARK   69  A    between atoms: _181  and  _182
REMARK   70  A    between atoms: _184  and  _186
REMARK   71  A    between atoms: _186  and  _187
REMARK   72  A    between atoms: _186  and  _189
REMARK   73  A    between atoms: _189  and  _190
REMARK   74  A    between atoms: _193  and  _195
REMARK   75  A    between atoms: _195  and  _196
REMARK   76  A    between atoms: _195  and  _198
REMARK   77  A    between atoms: _198  and  _199
REMARK   78  A    between atoms: _199  and  _200
REMARK   79  A    between atoms: _200  and  _201
REMARK   80  A    between atoms: _201  and  _202
REMARK   81  A    between atoms: _206  and  _208
REMARK   82  A    between atoms: _208  and  _209
REMARK   83  A    between atoms: _208  and  _211
REMARK   84  A    between atoms: _211  and  _212
REMARK   85  A    between atoms: _212  and  _213
REMARK   86  A    between atoms: _215  and  _217
REMARK   87  A    between atoms: _217  and  _218
REMARK   88  A    between atoms: _217  and  _220
REMARK   89  A    between atoms: _220  and  _221
REMARK   90  A    between atoms: _226  and  _227
REMARK   91  A    between atoms: _229  and  _231
REMARK   92  A    between atoms: _231  and  _232
REMARK   93  A    between atoms: _231  and  _234
REMARK   94  A    between atoms: _234  and  _235
REMARK   95  A    between atoms: _238  and  _240
REMARK   96  A    between atoms: _240  and  _241
REMARK   97  A    between atoms: _240  and  _243
REMARK   98  A    between atoms: _243  and  _244
REMARK   99  A    between atoms: _250  and  _252
REMARK  100  A    between atoms: _252  and  _253
REMARK  101  A    between atoms: _252  and  _255
REMARK  102  A    between atoms: _255  and  _256
REMARK  103  A    between atoms: _261  and  _262
REMARK  104  A    between atoms: _264  and  _266
REMARK  105  A    between atoms: _266  and  _267
REMARK  106  A    between atoms: _269  and  _271
REMARK  107  A    between atoms: _271  and  _272
REMARK  108  A    between atoms: _274  and  _276
REMARK  109  A    between atoms: _276  and  _277
REMARK  110  A    between atoms: _276  and  _279
REMARK  111  A    between atoms: _279  and  _280
REMARK  112  A    between atoms: _290  and  _292
REMARK  113  A    between atoms: _292  and  _293
REMARK  114  A    between atoms: _292  and  _295
REMARK  115  A    between atoms: _295  and  _296
REMARK  116  A    between atoms: _301  and  _303
REMARK  117  A    between atoms: _303  and  _304
REMARK  118  A    between atoms: _303  and  _306
REMARK  119  A    between atoms: _306  and  _307
REMARK  120  A    between atoms: _307  and  _308
REMARK  121  A    between atoms: _313  and  _315
REMARK  122  A    between atoms: _315  and  _316
REMARK  123  A    between atoms: _315  and  _318
REMARK  124  A    between atoms: _318  and  _319
REMARK  125  A    between atoms: _324  and  _325
REMARK  126  A    between atoms: _327  and  _329
REMARK  127  A    between atoms: _329  and  _330
REMARK  128  A    between atoms: _329  and  _332
REMARK  129  A    between atoms: _332  and  _333
REMARK  130  A    between atoms: _338  and  _339
REMARK  131  A    between atoms: _341  and  _343
REMARK  132  A    between atoms: _343  and  _344
REMARK  133  A    between atoms: _343  and  _346
REMARK  134  A    between atoms: _346  and  _347
REMARK  135  A    between atoms: _347  and  _348
REMARK  136  A    between atoms: _348  and  _349
REMARK  137  A    between atoms: _358  and  _360
REMARK  138  A    between atoms: _360  and  _361
REMARK  139  A    between atoms: _360  and  _363
REMARK  140  A    between atoms: _363  and  _364
REMARK  141  A    between atoms: _364  and  _365
REMARK  142  A    between atoms: _365  and  _366
REMARK  143  A    between atoms: _366  and  _367
REMARK  144  A    between atoms: _371  and  _373
REMARK  145  A    between atoms: _373  and  _374
REMARK  146  A    between atoms: _373  and  _376
REMARK  147  A    between atoms: _376  and  _377
REMARK  148  A    between atoms: _377  and  _378
REMARK  149  A    between atoms: _381  and  _383
REMARK  150  A    between atoms: _383  and  _384
REMARK  151  A    between atoms: _383  and  _386
REMARK  152  A    between atoms: _389  and  _391
REMARK  153  A    between atoms: _391  and  _392
REMARK  154  A    between atoms: _391  and  _394
REMARK  155  A    between atoms: _394  and  _395
REMARK                            x       y       z     vdW  Elec       q    Type
REMARK                         _______ _______ _______ _____ _____    ______ ____
ROOT
ATOM      1  O   HOH     1      20.419  -5.409  23.535  0.00  0.00    +0.000 OA
ENDROOT
TORSDOF 0
REMARK  Name = ../refined-set-2016/3arq/3arq_pocket.pdb
REMARK  155 active torsions:
REMARK  status: ('A' for Active; 'I' for Inactive)
REMARK    1  A    between atoms: _1  and  _3
REMARK    2  A    between atoms: _3  and  _4
REMARK    3  A    between atoms: _3  and  _6
REMARK    4  A    between atoms: _6  and  _7
REMARK    5  A    between atoms: _17  and  _19
REMARK    6  A    between atoms: _19  and  _20
REMARK    7  A    between atoms: _19  and  _22
REMARK    8  A    between atoms: _22  and  _23
REMARK    9  A    between atoms: _29  and  _31
REMARK   10  A    between atoms: _31  and  _32
REMARK   11  A    between atoms: _31  and  _34
REMARK   12  A    between atoms: _34  and  _35
REMARK   13  A    between atoms: _37  and  _39
REMARK   14  A    between atoms: _39  and  _40
REMARK   15  A    between atoms: _39  and  _42
REMARK   16  A    between atoms: _45  and  _47
REMARK   17  A    between atoms: _47  and  _48
REMARK   18  A    between atoms: _50  and  _52
REMARK   19  A    between atoms: _52  and  _53
REMARK   20  A    between atoms: _52  and  _55
REMARK   21  A    between atoms: _55  and  _56
REMARK   22  A    between atoms: _66  and  _68
REMARK   23  A    between atoms: _68  and  _69
REMARK   24  A    between atoms: _68  and  _71
REMARK   25  A    between atoms: _71  and  _72
REMARK   26  A    between atoms: _75  and  _77
REMARK   27  A    between atoms: _77  and  _78
REMARK   28  A    between atoms: _77  and  _80
REMARK   29  A    between atoms: _80  and  _81
REMARK   30  A    between atoms: _86  and  _87
REMARK   31  A    between atoms: _89  and  _91
REMARK   32  A    between atoms: _91  and  _92
REMARK   33  A    between atoms: _91  and  _94
REMARK   34  A    between atoms: _94  and  _95
REMARK   35  A    between atoms: _95  and  _96
REMARK   36  A    between atoms: _99  and  _101
REMARK   37  A    between atoms: _101  and  _102
REMARK   38  A    between atoms: _101  and  _104
REMARK   39  A    between atoms: _104  and  _105
REMARK   40  A    between atoms: _111  and  _113
REMARK   41  A    between atoms: _113  and  _114
REMARK   42  A    between atoms: _116  and  _118
REMARK   43  A    between atoms: _118  and  _119
REMARK   44  A    between atoms: _121  and  _123
REMARK   45  A    between atoms: _123  and  _124
REMARK   46  A    between atoms: _126  and  _128
REMARK   47  A    between atoms: _128  and  _129
REMARK   48  A    between atoms: _132  and  _134
REMARK   49  A    between atoms: _134  and  _135
REMARK   50  A    between atoms: _138  and  _140
REMARK   51  A    between atoms: _140  and  _141
REMARK   52  A    between atoms: _144  and  _146
REMARK   53  A    between atoms: _146  and  _147
REMARK   54  A    between atoms: _146  and  _149
REMARK   55  A    between atoms: _149  and  _150
REMARK   56  A    between atoms: _153  and  _155
REMARK   57  A    between atoms: _155  and  _156
REMARK   58  A    between atoms: _155  and  _158
REMARK   59  A    between atoms: _158  and  _159
REMARK   60  A    between atoms: _159  and  _160
REMARK   61  A    between atoms: _160  and  _161
REMARK   62  A    between atoms: _161  and  _162
REMARK   63  A    between atoms: _166  and  _168
REMARK   64  A    between atoms: _168  and  _169
REMARK   65  A    between atoms: _171  and  _173
REMARK   66  A    between atoms: _173  and  _174
REMARK   67  A    between atoms: _173  and  _176
REMARK   68  A    between atoms: _179  and  _181
REMARK   69  A    between atoms: _181  and  _182
REMARK   70  A    between atoms: _184  and  _186
REMARK   71  A    between atoms: _186  and  _187
REMARK   72  A    between atoms: _186  and  _189
REMARK   73  A    between atoms: _189  and  _190
REMARK   74  A    between atoms: _193  and  _195
REMARK   75  A    between atoms: _195  and  _196
REMARK   76  A    between atoms: _195  and  _198
REMARK   77  A    between atoms: _198  and  _199
REMARK   78  A    between atoms: _199  and  _200
REMARK   79  A    between atoms: _200  and  _201
REMARK   80  A    between atoms: _201  and  _202
REMARK   81  A    between atoms: _206  and  _208
REMARK   82  A    between atoms: _208  and  _209
REMARK   83  A    between atoms: _208  and  _211
REMARK   84  A    between atoms: _211  and  _212
REMARK   85  A    between atoms: _212  and  _213
REMARK   86  A    between atoms: _215  and  _217
REMARK   87  A    between atoms: _217  and  _218
REMARK   88  A    between atoms: _217  and  _220
REMARK   89  A    between atoms: _220  and  _221
REMARK   90  A    between atoms: _226  and  _227
REMARK   91  A    between atoms: _229  and  _231
REMARK   92  A    between atoms: _231  and  _232
REMARK   93  A    between atoms: _231  and  _234
REMARK   94  A    between atoms: _234  and  _235
REMARK   95  A    between atoms: _238  and  _240
REMARK   96  A    between atoms: _240  and  _241
REMARK   97  A    between atoms: _240  and  _243
REMARK   98  A    between atoms: _243  and  _244
REMARK   99  A    between atoms: _250  and  _252
REMARK  100  A    between atoms: _252  and  _253
REMARK  101  A    between atoms: _252  and  _255
REMARK  102  A    between atoms: _255  and  _256
REMARK  103  A    between atoms: _261  and  _262
REMARK  104  A    between atoms: _264  and  _266
REMARK  105  A    between atoms: _266  and  _267
REMARK  106  A    between atoms: _269  and  _271
REMARK  107  A    between atoms: _271  and  _272
REMARK  108  A    between atoms: _274  and  _276
REMARK  109  A    between atoms: _276  and  _277
REMARK  110  A    between atoms: _276  and  _279
REMARK  111  A    between atoms: _279  and  _280
REMARK  112  A    between atoms: _290  and  _292
REMARK  113  A    between atoms: _292  and  _293
REMARK  114  A    between atoms: _292  and  _295
REMARK  115  A    between atoms: _295  and  _296
REMARK  116  A    between atoms: _301  and  _303
REMARK  117  A    between atoms: _303  and  _304
REMARK  118  A    between atoms: _303  and  _306
REMARK  119  A    between atoms: _306  and  _307
REMARK  120  A    between atoms: _307  and  _308
REMARK  121  A    between atoms: _313  and  _315
REMARK  122  A    between atoms: _315  and  _316
REMARK  123  A    between atoms: _315  and  _318
REMARK  124  A    between atoms: _318  and  _319
REMARK  125  A    between atoms: _324  and  _325
REMARK  126  A    between atoms: _327  and  _329
REMARK  127  A    between atoms: _329  and  _330
REMARK  128  A    between atoms: _329  and  _332
REMARK  129  A    between atoms: _332  and  _333
REMARK  130  A    between atoms: _338  and  _339
REMARK  131  A    between atoms: _341  and  _343
REMARK  132  A    between atoms: _343  and  _344
REMARK  133  A    between atoms: _343  and  _346
REMARK  134  A    between atoms: _346  and  _347
REMARK  135  A    between atoms: _347  and  _348
REMARK  136  A    between atoms: _348  and  _349
REMARK  137  A    between atoms: _358  and  _360
REMARK  138  A    between atoms: _360  and  _361
REMARK  139  A    between atoms: _360  and  _363
REMARK  140  A    between atoms: _363  and  _364
REMARK  141  A    between atoms: _364  and  _365
REMARK  142  A    between atoms: _365  and  _366
REMARK  143  A    between atoms: _366  and  _367
REMARK  144  A    between atoms: _371  and  _373
REMARK  145  A    between atoms: _373  and  _374
REMARK  146  A    between atoms: _373  and  _376
REMARK  147  A    between atoms: _376  and  _377
REMARK  148  A    between atoms: _377  and  _378
REMARK  149  A    between atoms: _381  and  _383
REMARK  150  A    between atoms: _383  and  _384
REMARK  151  A    between atoms: _383  and  _386
REMARK  152  A    between atoms: _389  and  _391
REMARK  153  A    between atoms: _391  and  _392
REMARK  154  A    between atoms: _391  and  _394
REMARK  155  A    between atoms: _394  and  _395
REMARK                            x       y       z     vdW  Elec       q    Type
REMARK                         _______ _______ _______ _____ _____    ______ ____
ROOT
ATOM      1  O   HOH     1      19.860  -1.886  26.341  0.00  0.00    +0.000 OA
ENDROOT
TORSDOF 0
REMARK  Name = ../refined-set-2016/3arq/3arq_pocket.pdb
REMARK  155 active torsions:
REMARK  status: ('A' for Active; 'I' for Inactive)
REMARK    1  A    between atoms: _1  and  _3
REMARK    2  A    between atoms: _3  and  _4
REMARK    3  A    between atoms: _3  and  _6
REMARK    4  A    between atoms: _6  and  _7
REMARK    5  A    between atoms: _17  and  _19
REMARK    6  A    between atoms: _19  and  _20
REMARK    7  A    between atoms: _19  and  _22
REMARK    8  A    between atoms: _22  and  _23
REMARK    9  A    between atoms: _29  and  _31
REMARK   10  A    between atoms: _31  and  _32
REMARK   11  A    between atoms: _31  and  _34
REMARK   12  A    between atoms: _34  and  _35
REMARK   13  A    between atoms: _37  and  _39
REMARK   14  A    between atoms: _39  and  _40
REMARK   15  A    between atoms: _39  and  _42
REMARK   16  A    between atoms: _45  and  _47
REMARK   17  A    between atoms: _47  and  _48
REMARK   18  A    between atoms: _50  and  _52
REMARK   19  A    between atoms: _52  and  _53
REMARK   20  A    between atoms: _52  and  _55
REMARK   21  A    between atoms: _55  and  _56
REMARK   22  A    between atoms: _66  and  _68
REMARK   23  A    between atoms: _68  and  _69
REMARK   24  A    between atoms: _68  and  _71
REMARK   25  A    between atoms: _71  and  _72
REMARK   26  A    between atoms: _75  and  _77
REMARK   27  A    between atoms: _77  and  _78
REMARK   28  A    between atoms: _77  and  _80
REMARK   29  A    between atoms: _80  and  _81
REMARK   30  A    between atoms: _86  and  _87
REMARK   31  A    between atoms: _89  and  _91
REMARK   32  A    between atoms: _91  and  _92
REMARK   33  A    between atoms: _91  and  _94
REMARK   34  A    between atoms: _94  and  _95
REMARK   35  A    between atoms: _95  and  _96
REMARK   36  A    between atoms: _99  and  _101
REMARK   37  A    between atoms: _101  and  _102
REMARK   38  A    between atoms: _101  and  _104
REMARK   39  A    between atoms: _104  and  _105
REMARK   40  A    between atoms: _111  and  _113
REMARK   41  A    between atoms: _113  and  _114
REMARK   42  A    between atoms: _116  and  _118
REMARK   43  A    between atoms: _118  and  _119
REMARK   44  A    between atoms: _121  and  _123
REMARK   45  A    between atoms: _123  and  _124
REMARK   46  A    between atoms: _126  and  _128
REMARK   47  A    between atoms: _128  and  _129
REMARK   48  A    between atoms: _132  and  _134
REMARK   49  A    between atoms: _134  and  _135
REMARK   50  A    between atoms: _138  and  _140
REMARK   51  A    between atoms: _140  and  _141
REMARK   52  A    between atoms: _144  and  _146
REMARK   53  A    between atoms: _146  and  _147
REMARK   54  A    between atoms: _146  and  _149
REMARK   55  A    between atoms: _149  and  _150
REMARK   56  A    between atoms: _153  and  _155
REMARK   57  A    between atoms: _155  and  _156
REMARK   58  A    between atoms: _155  and  _158
REMARK   59  A    between atoms: _158  and  _159
REMARK   60  A    between atoms: _159  and  _160
REMARK   61  A    between atoms: _160  and  _161
REMARK   62  A    between atoms: _161  and  _162
REMARK   63  A    between atoms: _166  and  _168
REMARK   64  A    between atoms: _168  and  _169
REMARK   65  A    between atoms: _171  and  _173
REMARK   66  A    between atoms: _173  and  _174
REMARK   67  A    between atoms: _173  and  _176
REMARK   68  A    between atoms: _179  and  _181
REMARK   69  A    between atoms: _181  and  _182
REMARK   70  A    between atoms: _184  and  _186
REMARK   71  A    between atoms: _186  and  _187
REMARK   72  A    between atoms: _186  and  _189
REMARK   73  A    between atoms: _189  and  _190
REMARK   74  A    between atoms: _193  and  _195
REMARK   75  A    between atoms: _195  and  _196
REMARK   76  A    between atoms: _195  and  _198
REMARK   77  A    between atoms: _198  and  _199
REMARK   78  A    between atoms: _199  and  _200
REMARK   79  A    between atoms: _200  and  _201
REMARK   80  A    between atoms: _201  and  _202
REMARK   81  A    between atoms: _206  and  _208
REMARK   82  A    between atoms: _208  and  _209
REMARK   83  A    between atoms: _208  and  _211
REMARK   84  A    between atoms: _211  and  _212
REMARK   85  A    between atoms: _212  and  _213
REMARK   86  A    between atoms: _215  and  _217
REMARK   87  A    between atoms: _217  and  _218
REMARK   88  A    between atoms: _217  and  _220
REMARK   89  A    between atoms: _220  and  _221
REMARK   90  A    between atoms: _226  and  _227
REMARK   91  A    between atoms: _229  and  _231
REMARK   92  A    between atoms: _231  and  _232
REMARK   93  A    between atoms: _231  and  _234
REMARK   94  A    between atoms: _234  and  _235
REMARK   95  A    between atoms: _238  and  _240
REMARK   96  A    between atoms: _240  and  _241
REMARK   97  A    between atoms: _240  and  _243
REMARK   98  A    between atoms: _243  and  _244
REMARK   99  A    between atoms: _250  and  _252
REMARK  100  A    between atoms: _252  and  _253
REMARK  101  A    between atoms: _252  and  _255
REMARK  102  A    between atoms: _255  and  _256
REMARK  103  A    between atoms: _261  and  _262
REMARK  104  A    between atoms: _264  and  _266
REMARK  105  A    between atoms: _266  and  _267
REMARK  106  A    between atoms: _269  and  _271
REMARK  107  A    between atoms: _271  and  _272
REMARK  108  A    between atoms: _274  and  _276
REMARK  109  A    between atoms: _276  and  _277
REMARK  110  A    between atoms: _276  and  _279
REMARK  111  A    between atoms: _279  and  _280
REMARK  112  A    between atoms: _290  and  _292
REMARK  113  A    between atoms: _292  and  _293
REMARK  114  A    between atoms: _292  and  _295
REMARK  115  A    between atoms: _295  and  _296
REMARK  116  A    between atoms: _301  and  _303
REMARK  117  A    between atoms: _303  and  _304
REMARK  118  A    between atoms: _303  and  _306
REMARK  119  A    between atoms: _306  and  _307
REMARK  120  A    between atoms: _307  and  _308
REMARK  121  A    between atoms: _313  and  _315
REMARK  122  A    between atoms: _315  and  _316
REMARK  123  A    between atoms: _315  and  _318
REMARK  124  A    between atoms: _318  and  _319
REMARK  125  A    between atoms: _324  and  _325
REMARK  126  A    between atoms: _327  and  _329
REMARK  127  A    between atoms: _329  and  _330
REMARK  128  A    between atoms: _329  and  _332
REMARK  129  A    between atoms: _332  and  _333
REMARK  130  A    between atoms: _338  and  _339
REMARK  131  A    between atoms: _341  and  _343
REMARK  132  A    between atoms: _343  and  _344
REMARK  133  A    between atoms: _343  and  _346
REMARK  134  A    between atoms: _346  and  _347
REMARK  135  A    between atoms: _347  and  _348
REMARK  136  A    between atoms: _348  and  _349
REMARK  137  A    between atoms: _358  and  _360
REMARK  138  A    between atoms: _360  and  _361
REMARK  139  A    between atoms: _360  and  _363
REMARK  140  A    between atoms: _363  and  _364
REMARK  141  A    between atoms: _364  and  _365
REMARK  142  A    between atoms: _365  and  _366
REMARK  143  A    between atoms: _366  and  _367
REMARK  144  A    between atoms: _371  and  _373
REMARK  145  A    between atoms: _373  and  _374
REMARK  146  A    between atoms: _373  and  _376
REMARK  147  A    between atoms: _376  and  _377
REMARK  148  A    between atoms: _377  and  _378
REMARK  149  A    between atoms: _381  and  _383
REMARK  150  A    between atoms: _383  and  _384
REMARK  151  A    between atoms: _383  and  _386
REMARK  152  A    between atoms: _389  and  _391
REMARK  153  A    between atoms: _391  and  _392
REMARK  154  A    between atoms: _391  and  _394
REMARK  155  A    between atoms: _394  and  _395
REMARK                            x       y       z     vdW  Elec       q    Type
REMARK                         _______ _______ _______ _____ _____    ______ ____
ROOT
ATOM      1  O   HOH     1      15.103  -3.494  30.383  0.00  0.00    +0.000 OA
ENDROOT
TORSDOF 0
REMARK  Name = ../refined-set-2016/3arq/3arq_pocket.pdb
REMARK  155 active torsions:
REMARK  status: ('A' for Active; 'I' for Inactive)
REMARK    1  A    between atoms: _1  and  _3
REMARK    2  A    between atoms: _3  and  _4
REMARK    3  A    between atoms: _3  and  _6
REMARK    4  A    between atoms: _6  and  _7
REMARK    5  A    between atoms: _17  and  _19
REMARK    6  A    between atoms: _19  and  _20
REMARK    7  A    between atoms: _19  and  _22
REMARK    8  A    between atoms: _22  and  _23
REMARK    9  A    between atoms: _29  and  _31
REMARK   10  A    between atoms: _31  and  _32
REMARK   11  A    between atoms: _31  and  _34
REMARK   12  A    between atoms: _34  and  _35
REMARK   13  A    between atoms: _37  and  _39
REMARK   14  A    between atoms: _39  and  _40
REMARK   15  A    between atoms: _39  and  _42
REMARK   16  A    between atoms: _45  and  _47
REMARK   17  A    between atoms: _47  and  _48
REMARK   18  A    between atoms: _50  and  _52
REMARK   19  A    between atoms: _52  and  _53
REMARK   20  A    between atoms: _52  and  _55
REMARK   21  A    between atoms: _55  and  _56
REMARK   22  A    between atoms: _66  and  _68
REMARK   23  A    between atoms: _68  and  _69
REMARK   24  A    between atoms: _68  and  _71
REMARK   25  A    between atoms: _71  and  _72
REMARK   26  A    between atoms: _75  and  _77
REMARK   27  A    between atoms: _77  and  _78
REMARK   28  A    between atoms: _77  and  _80
REMARK   29  A    between atoms: _80  and  _81
REMARK   30  A    between atoms: _86  and  _87
REMARK   31  A    between atoms: _89  and  _91
REMARK   32  A    between atoms: _91  and  _92
REMARK   33  A    between atoms: _91  and  _94
REMARK   34  A    between atoms: _94  and  _95
REMARK   35  A    between atoms: _95  and  _96
REMARK   36  A    between atoms: _99  and  _101
REMARK   37  A    between atoms: _101  and  _102
REMARK   38  A    between atoms: _101  and  _104
REMARK   39  A    between atoms: _104  and  _105
REMARK   40  A    between atoms: _111  and  _113
REMARK   41  A    between atoms: _113  and  _114
REMARK   42  A    between atoms: _116  and  _118
REMARK   43  A    between atoms: _118  and  _119
REMARK   44  A    between atoms: _121  and  _123
REMARK   45  A    between atoms: _123  and  _124
REMARK   46  A    between atoms: _126  and  _128
REMARK   47  A    between atoms: _128  and  _129
REMARK   48  A    between atoms: _132  and  _134
REMARK   49  A    between atoms: _134  and  _135
REMARK   50  A    between atoms: _138  and  _140
REMARK   51  A    between atoms: _140  and  _141
REMARK   52  A    between atoms: _144  and  _146
REMARK   53  A    between atoms: _146  and  _147
REMARK   54  A    between atoms: _146  and  _149
REMARK   55  A    between atoms: _149  and  _150
REMARK   56  A    between atoms: _153  and  _155
REMARK   57  A    between atoms: _155  and  _156
REMARK   58  A    between atoms: _155  and  _158
REMARK   59  A    between atoms: _158  and  _159
REMARK   60  A    between atoms: _159  and  _160
REMARK   61  A    between atoms: _160  and  _161
REMARK   62  A    between atoms: _161  and  _162
REMARK   63  A    between atoms: _166  and  _168
REMARK   64  A    between atoms: _168  and  _169
REMARK   65  A    between atoms: _171  and  _173
REMARK   66  A    between atoms: _173  and  _174
REMARK   67  A    between atoms: _173  and  _176
REMARK   68  A    between atoms: _179  and  _181
REMARK   69  A    between atoms: _181  and  _182
REMARK   70  A    between atoms: _184  and  _186
REMARK   71  A    between atoms: _186  and  _187
REMARK   72  A    between atoms: _186  and  _189
REMARK   73  A    between atoms: _189  and  _190
REMARK   74  A    between atoms: _193  and  _195
REMARK   75  A    between atoms: _195  and  _196
REMARK   76  A    between atoms: _195  and  _198
REMARK   77  A    between atoms: _198  and  _199
REMARK   78  A    between atoms: _199  and  _200
REMARK   79  A    between atoms: _200  and  _201
REMARK   80  A    between atoms: _201  and  _202
REMARK   81  A    between atoms: _206  and  _208
REMARK   82  A    between atoms: _208  and  _209
REMARK   83  A    between atoms: _208  and  _211
REMARK   84  A    between atoms: _211  and  _212
REMARK   85  A    between atoms: _212  and  _213
REMARK   86  A    between atoms: _215  and  _217
REMARK   87  A    between atoms: _217  and  _218
REMARK   88  A    between atoms: _217  and  _220
REMARK   89  A    between atoms: _220  and  _221
REMARK   90  A    between atoms: _226  and  _227
REMARK   91  A    between atoms: _229  and  _231
REMARK   92  A    between atoms: _231  and  _232
REMARK   93  A    between atoms: _231  and  _234
REMARK   94  A    between atoms: _234  and  _235
REMARK   95  A    between atoms: _238  and  _240
REMARK   96  A    between atoms: _240  and  _241
REMARK   97  A    between atoms: _240  and  _243
REMARK   98  A    between atoms: _243  and  _244
REMARK   99  A    between atoms: _250  and  _252
REMARK  100  A    between atoms: _252  and  _253
REMARK  101  A    between atoms: _252  and  _255
REMARK  102  A    between atoms: _255  and  _256
REMARK  103  A    between atoms: _261  and  _262
REMARK  104  A    between atoms: _264  and  _266
REMARK  105  A    between atoms: _266  and  _267
REMARK  106  A    between atoms: _269  and  _271
REMARK  107  A    between atoms: _271  and  _272
REMARK  108  A    between atoms: _274  and  _276
REMARK  109  A    between atoms: _276  and  _277
REMARK  110  A    between atoms: _276  and  _279
REMARK  111  A    between atoms: _279  and  _280
REMARK  112  A    between atoms: _290  and  _292
REMARK  113  A    between atoms: _292  and  _293
REMARK  114  A    between atoms: _292  and  _295
REMARK  115  A    between atoms: _295  and  _296
REMARK  116  A    between atoms: _301  and  _303
REMARK  117  A    between atoms: _303  and  _304
REMARK  118  A    between atoms: _303  and  _306
REMARK  119  A    between atoms: _306  and  _307
REMARK  120  A    between atoms: _307  and  _308
REMARK  121  A    between atoms: _313  and  _315
REMARK  122  A    between atoms: _315  and  _316
REMARK  123  A    between atoms: _315  and  _318
REMARK  124  A    between atoms: _318  and  _319
REMARK  125  A    between atoms: _324  and  _325
REMARK  126  A    between atoms: _327  and  _329
REMARK  127  A    between atoms: _329  and  _330
REMARK  128  A    between atoms: _329  and  _332
REMARK  129  A    between atoms: _332  and  _333
REMARK  130  A    between atoms: _338  and  _339
REMARK  131  A    between atoms: _341  and  _343
REMARK  132  A    between atoms: _343  and  _344
REMARK  133  A    between atoms: _343  and  _346
REMARK  134  A    between atoms: _346  and  _347
REMARK  135  A    between atoms: _347  and  _348
REMARK  136  A    between atoms: _348  and  _349
REMARK  137  A    between atoms: _358  and  _360
REMARK  138  A    between atoms: _360  and  _361
REMARK  139  A    between atoms: _360  and  _363
REMARK  140  A    between atoms: _363  and  _364
REMARK  141  A    between atoms: _364  and  _365
REMARK  142  A    between atoms: _365  and  _366
REMARK  143  A    between atoms: _366  and  _367
REMARK  144  A    between atoms: _371  and  _373
REMARK  145  A    between atoms: _373  and  _374
REMARK  146  A    between atoms: _373  and  _376
REMARK  147  A    between atoms: _376  and  _377
REMARK  148  A    between atoms: _377  and  _378
REMARK  149  A    between atoms: _381  and  _383
REMARK  150  A    between atoms: _383  and  _384
REMARK  151  A    between atoms: _383  and  _386
REMARK  152  A    between atoms: _389  and  _391
REMARK  153  A    between atoms: _391  and  _392
REMARK  154  A    between atoms: _391  and  _394
REMARK  155  A    between atoms: _394  and  _395
REMARK                            x       y       z     vdW  Elec       q    Type
REMARK                         _______ _______ _______ _____ _____    ______ ____
ROOT
ATOM      1  O   HOH     1      22.646 -10.242  13.609  0.00  0.00    +0.000 OA
ENDROOT
TORSDOF 0
REMARK  Name = ../refined-set-2016/3arq/3arq_pocket.pdb
REMARK  155 active torsions:
REMARK  status: ('A' for Active; 'I' for Inactive)
REMARK    1  A    between atoms: _1  and  _3
REMARK    2  A    between atoms: _3  and  _4
REMARK    3  A    between atoms: _3  and  _6
REMARK    4  A    between atoms: _6  and  _7
REMARK    5  A    between atoms: _17  and  _19
REMARK    6  A    between atoms: _19  and  _20
REMARK    7  A    between atoms: _19  and  _22
REMARK    8  A    between atoms: _22  and  _23
REMARK    9  A    between atoms: _29  and  _31
REMARK   10  A    between atoms: _31  and  _32
REMARK   11  A    between atoms: _31  and  _34
REMARK   12  A    between atoms: _34  and  _35
REMARK   13  A    between atoms: _37  and  _39
REMARK   14  A    between atoms: _39  and  _40
REMARK   15  A    between atoms: _39  and  _42
REMARK   16  A    between atoms: _45  and  _47
REMARK   17  A    between atoms: _47  and  _48
REMARK   18  A    between atoms: _50  and  _52
REMARK   19  A    between atoms: _52  and  _53
REMARK   20  A    between atoms: _52  and  _55
REMARK   21  A    between atoms: _55  and  _56
REMARK   22  A    between atoms: _66  and  _68
REMARK   23  A    between atoms: _68  and  _69
REMARK   24  A    between atoms: _68  and  _71
REMARK   25  A    between atoms: _71  and  _72
REMARK   26  A    between atoms: _75  and  _77
REMARK   27  A    between atoms: _77  and  _78
REMARK   28  A    between atoms: _77  and  _80
REMARK   29  A    between atoms: _80  and  _81
REMARK   30  A    between atoms: _86  and  _87
REMARK   31  A    between atoms: _89  and  _91
REMARK   32  A    between atoms: _91  and  _92
REMARK   33  A    between atoms: _91  and  _94
REMARK   34  A    between atoms: _94  and  _95
REMARK   35  A    between atoms: _95  and  _96
REMARK   36  A    between atoms: _99  and  _101
REMARK   37  A    between atoms: _101  and  _102
REMARK   38  A    between atoms: _101  and  _104
REMARK   39  A    between atoms: _104  and  _105
REMARK   40  A    between atoms: _111  and  _113
REMARK   41  A    between atoms: _113  and  _114
REMARK   42  A    between atoms: _116  and  _118
REMARK   43  A    between atoms: _118  and  _119
REMARK   44  A    between atoms: _121  and  _123
REMARK   45  A    between atoms: _123  and  _124
REMARK   46  A    between atoms: _126  and  _128
REMARK   47  A    between atoms: _128  and  _129
REMARK   48  A    between atoms: _132  and  _134
REMARK   49  A    between atoms: _134  and  _135
REMARK   50  A    between atoms: _138  and  _140
REMARK   51  A    between atoms: _140  and  _141
REMARK   52  A    between atoms: _144  and  _146
REMARK   53  A    between atoms: _146  and  _147
REMARK   54  A    between atoms: _146  and  _149
REMARK   55  A    between atoms: _149  and  _150
REMARK   56  A    between atoms: _153  and  _155
REMARK   57  A    between atoms: _155  and  _156
REMARK   58  A    between atoms: _155  and  _158
REMARK   59  A    between atoms: _158  and  _159
REMARK   60  A    between atoms: _159  and  _160
REMARK   61  A    between atoms: _160  and  _161
REMARK   62  A    between atoms: _161  and  _162
REMARK   63  A    between atoms: _166  and  _168
REMARK   64  A    between atoms: _168  and  _169
REMARK   65  A    between atoms: _171  and  _173
REMARK   66  A    between atoms: _173  and  _174
REMARK   67  A    between atoms: _173  and  _176
REMARK   68  A    between atoms: _179  and  _181
REMARK   69  A    between atoms: _181  and  _182
REMARK   70  A    between atoms: _184  and  _186
REMARK   71  A    between atoms: _186  and  _187
REMARK   72  A    between atoms: _186  and  _189
REMARK   73  A    between atoms: _189  and  _190
REMARK   74  A    between atoms: _193  and  _195
REMARK   75  A    between atoms: _195  and  _196
REMARK   76  A    between atoms: _195  and  _198
REMARK   77  A    between atoms: _198  and  _199
REMARK   78  A    between atoms: _199  and  _200
REMARK   79  A    between atoms: _200  and  _201
REMARK   80  A    between atoms: _201  and  _202
REMARK   81  A    between atoms: _206  and  _208
REMARK   82  A    between atoms: _208  and  _209
REMARK   83  A    between atoms: _208  and  _211
REMARK   84  A    between atoms: _211  and  _212
REMARK   85  A    between atoms: _212  and  _213
REMARK   86  A    between atoms: _215  and  _217
REMARK   87  A    between atoms: _217  and  _218
REMARK   88  A    between atoms: _217  and  _220
REMARK   89  A    between atoms: _220  and  _221
REMARK   90  A    between atoms: _226  and  _227
REMARK   91  A    between atoms: _229  and  _231
REMARK   92  A    between atoms: _231  and  _232
REMARK   93  A    between atoms: _231  and  _234
REMARK   94  A    between atoms: _234  and  _235
REMARK   95  A    between atoms: _238  and  _240
REMARK   96  A    between atoms: _240  and  _241
REMARK   97  A    between atoms: _240  and  _243
REMARK   98  A    between atoms: _243  and  _244
REMARK   99  A    between atoms: _250  and  _252
REMARK  100  A    between atoms: _252  and  _253
REMARK  101  A    between atoms: _252  and  _255
REMARK  102  A    between atoms: _255  and  _256
REMARK  103  A    between atoms: _261  and  _262
REMARK  104  A    between atoms: _264  and  _266
REMARK  105  A    between atoms: _266  and  _267
REMARK  106  A    between atoms: _269  and  _271
REMARK  107  A    between atoms: _271  and  _272
REMARK  108  A    between atoms: _274  and  _276
REMARK  109  A    between atoms: _276  and  _277
REMARK  110  A    between atoms: _276  and  _279
REMARK  111  A    between atoms: _279  and  _280
REMARK  112  A    between atoms: _290  and  _292
REMARK  113  A    between atoms: _292  and  _293
REMARK  114  A    between atoms: _292  and  _295
REMARK  115  A    between atoms: _295  and  _296
REMARK  116  A    between atoms: _301  and  _303
REMARK  117  A    between atoms: _303  and  _304
REMARK  118  A    between atoms: _303  and  _306
REMARK  119  A    between atoms: _306  and  _307
REMARK  120  A    between atoms: _307  and  _308
REMARK  121  A    between atoms: _313  and  _315
REMARK  122  A    between atoms: _315  and  _316
REMARK  123  A    between atoms: _315  and  _318
REMARK  124  A    between atoms: _318  and  _319
REMARK  125  A    between atoms: _324  and  _325
REMARK  126  A    between atoms: _327  and  _329
REMARK  127  A    between atoms: _329  and  _330
REMARK  128  A    between atoms: _329  and  _332
REMARK  129  A    between atoms: _332  and  _333
REMARK  130  A    between atoms: _338  and  _339
REMARK  131  A    between atoms: _341  and  _343
REMARK  132  A    between atoms: _343  and  _344
REMARK  133  A    between atoms: _343  and  _346
REMARK  134  A    between atoms: _346  and  _347
REMARK  135  A    between atoms: _347  and  _348
REMARK  136  A    between atoms: _348  and  _349
REMARK  137  A    between atoms: _358  and  _360
REMARK  138  A    between atoms: _360  and  _361
REMARK  139  A    between atoms: _360  and  _363
REMARK  140  A    between atoms: _363  and  _364
REMARK  141  A    between atoms: _364  and  _365
REMARK  142  A    between atoms: _365  and  _366
REMARK  143  A    between atoms: _366  and  _367
REMARK  144  A    between atoms: _371  and  _373
REMARK  145  A    between atoms: _373  and  _374
REMARK  146  A    between atoms: _373  and  _376
REMARK  147  A    between atoms: _376  and  _377
REMARK  148  A    between atoms: _377  and  _378
REMARK  149  A    between atoms: _381  and  _383
REMARK  150  A    between atoms: _383  and  _384
REMARK  151  A    between atoms: _383  and  _386
REMARK  152  A    between atoms: _389  and  _391
REMARK  153  A    between atoms: _391  and  _392
REMARK  154  A    between atoms: _391  and  _394
REMARK  155  A    between atoms: _394  and  _395
REMARK                            x       y       z     vdW  Elec       q    Type
REMARK                         _______ _______ _______ _____ _____    ______ ____
ROOT
ATOM      1  O   HOH     1      23.035 -17.706  22.917  0.00  0.00    +0.000 OA
ENDROOT
TORSDOF 0
REMARK  Name = ../refined-set-2016/3arq/3arq_pocket.pdb
REMARK  155 active torsions:
REMARK  status: ('A' for Active; 'I' for Inactive)
REMARK    1  A    between atoms: _1  and  _3
REMARK    2  A    between atoms: _3  and  _4
REMARK    3  A    between atoms: _3  and  _6
REMARK    4  A    between atoms: _6  and  _7
REMARK    5  A    between atoms: _17  and  _19
REMARK    6  A    between atoms: _19  and  _20
REMARK    7  A    between atoms: _19  and  _22
REMARK    8  A    between atoms: _22  and  _23
REMARK    9  A    between atoms: _29  and  _31
REMARK   10  A    between atoms: _31  and  _32
REMARK   11  A    between atoms: _31  and  _34
REMARK   12  A    between atoms: _34  and  _35
REMARK   13  A    between atoms: _37  and  _39
REMARK   14  A    between atoms: _39  and  _40
REMARK   15  A    between atoms: _39  and  _42
REMARK   16  A    between atoms: _45  and  _47
REMARK   17  A    between atoms: _47  and  _48
REMARK   18  A    between atoms: _50  and  _52
REMARK   19  A    between atoms: _52  and  _53
REMARK   20  A    between atoms: _52  and  _55
REMARK   21  A    between atoms: _55  and  _56
REMARK   22  A    between atoms: _66  and  _68
REMARK   23  A    between atoms: _68  and  _69
REMARK   24  A    between atoms: _68  and  _71
REMARK   25  A    between atoms: _71  and  _72
REMARK   26  A    between atoms: _75  and  _77
REMARK   27  A    between atoms: _77  and  _78
REMARK   28  A    between atoms: _77  and  _80
REMARK   29  A    between atoms: _80  and  _81
REMARK   30  A    between atoms: _86  and  _87
REMARK   31  A    between atoms: _89  and  _91
REMARK   32  A    between atoms: _91  and  _92
REMARK   33  A    between atoms: _91  and  _94
REMARK   34  A    between atoms: _94  and  _95
REMARK   35  A    between atoms: _95  and  _96
REMARK   36  A    between atoms: _99  and  _101
REMARK   37  A    between atoms: _101  and  _102
REMARK   38  A    between atoms: _101  and  _104
REMARK   39  A    between atoms: _104  and  _105
REMARK   40  A    between atoms: _111  and  _113
REMARK   41  A    between atoms: _113  and  _114
REMARK   42  A    between atoms: _116  and  _118
REMARK   43  A    between atoms: _118  and  _119
REMARK   44  A    between atoms: _121  and  _123
REMARK   45  A    between atoms: _123  and  _124
REMARK   46  A    between atoms: _126  and  _128
REMARK   47  A    between atoms: _128  and  _129
REMARK   48  A    between atoms: _132  and  _134
REMARK   49  A    between atoms: _134  and  _135
REMARK   50  A    between atoms: _138  and  _140
REMARK   51  A    between atoms: _140  and  _141
REMARK   52  A    between atoms: _144  and  _146
REMARK   53  A    between atoms: _146  and  _147
REMARK   54  A    between atoms: _146  and  _149
REMARK   55  A    between atoms: _149  and  _150
REMARK   56  A    between atoms: _153  and  _155
REMARK   57  A    between atoms: _155  and  _156
REMARK   58  A    between atoms: _155  and  _158
REMARK   59  A    between atoms: _158  and  _159
REMARK   60  A    between atoms: _159  and  _160
REMARK   61  A    between atoms: _160  and  _161
REMARK   62  A    between atoms: _161  and  _162
REMARK   63  A    between atoms: _166  and  _168
REMARK   64  A    between atoms: _168  and  _169
REMARK   65  A    between atoms: _171  and  _173
REMARK   66  A    between atoms: _173  and  _174
REMARK   67  A    between atoms: _173  and  _176
REMARK   68  A    between atoms: _179  and  _181
REMARK   69  A    between atoms: _181  and  _182
REMARK   70  A    between atoms: _184  and  _186
REMARK   71  A    between atoms: _186  and  _187
REMARK   72  A    between atoms: _186  and  _189
REMARK   73  A    between atoms: _189  and  _190
REMARK   74  A    between atoms: _193  and  _195
REMARK   75  A    between atoms: _195  and  _196
REMARK   76  A    between atoms: _195  and  _198
REMARK   77  A    between atoms: _198  and  _199
REMARK   78  A    between atoms: _199  and  _200
REMARK   79  A    between atoms: _200  and  _201
REMARK   80  A    between atoms: _201  and  _202
REMARK   81  A    between atoms: _206  and  _208
REMARK   82  A    between atoms: _208  and  _209
REMARK   83  A    between atoms: _208  and  _211
REMARK   84  A    between atoms: _211  and  _212
REMARK   85  A    between atoms: _212  and  _213
REMARK   86  A    between atoms: _215  and  _217
REMARK   87  A    between atoms: _217  and  _218
REMARK   88  A    between atoms: _217  and  _220
REMARK   89  A    between atoms: _220  and  _221
REMARK   90  A    between atoms: _226  and  _227
REMARK   91  A    between atoms: _229  and  _231
REMARK   92  A    between atoms: _231  and  _232
REMARK   93  A    between atoms: _231  and  _234
REMARK   94  A    between atoms: _234  and  _235
REMARK   95  A    between atoms: _238  and  _240
REMARK   96  A    between atoms: _240  and  _241
REMARK   97  A    between atoms: _240  and  _243
REMARK   98  A    between atoms: _243  and  _244
REMARK   99  A    between atoms: _250  and  _252
REMARK  100  A    between atoms: _252  and  _253
REMARK  101  A    between atoms: _252  and  _255
REMARK  102  A    between atoms: _255  and  _256
REMARK  103  A    between atoms: _261  and  _262
REMARK  104  A    between atoms: _264  and  _266
REMARK  105  A    between atoms: _266  and  _267
REMARK  106  A    between atoms: _269  and  _271
REMARK  107  A    between atoms: _271  and  _272
REMARK  108  A    between atoms: _274  and  _276
REMARK  109  A    between atoms: _276  and  _277
REMARK  110  A    between atoms: _276  and  _279
REMARK  111  A    between atoms: _279  and  _280
REMARK  112  A    between atoms: _290  and  _292
REMARK  113  A    between atoms: _292  and  _293
REMARK  114  A    between atoms: _292  and  _295
REMARK  115  A    between atoms: _295  and  _296
REMARK  116  A    between atoms: _301  and  _303
REMARK  117  A    between atoms: _303  and  _304
REMARK  118  A    between atoms: _303  and  _306
REMARK  119  A    between atoms: _306  and  _307
REMARK  120  A    between atoms: _307  and  _308
REMARK  121  A    between atoms: _313  and  _315
REMARK  122  A    between atoms: _315  and  _316
REMARK  123  A    between atoms: _315  and  _318
REMARK  124  A    between atoms: _318  and  _319
REMARK  125  A    between atoms: _324  and  _325
REMARK  126  A    between atoms: _327  and  _329
REMARK  127  A    between atoms: _329  and  _330
REMARK  128  A    between atoms: _329  and  _332
REMARK  129  A    between atoms: _332  and  _333
REMARK  130  A    between atoms: _338  and  _339
REMARK  131  A    between atoms: _341  and  _343
REMARK  132  A    between atoms: _343  and  _344
REMARK  133  A    between atoms: _343  and  _346
REMARK  134  A    between atoms: _346  and  _347
REMARK  135  A    between atoms: _347  and  _348
REMARK  136  A    between atoms: _348  and  _349
REMARK  137  A    between atoms: _358  and  _360
REMARK  138  A    between atoms: _360  and  _361
REMARK  139  A    between atoms: _360  and  _363
REMARK  140  A    between atoms: _363  and  _364
REMARK  141  A    between atoms: _364  and  _365
REMARK  142  A    between atoms: _365  and  _366
REMARK  143  A    between atoms: _366  and  _367
REMARK  144  A    between atoms: _371  and  _373
REMARK  145  A    between atoms: _373  and  _374
REMARK  146  A    between atoms: _373  and  _376
REMARK  147  A    between atoms: _376  and  _377
REMARK  148  A    between atoms: _377  and  _378
REMARK  149  A    between atoms: _381  and  _383
REMARK  150  A    between atoms: _383  and  _384
REMARK  151  A    between atoms: _383  and  _386
REMARK  152  A    between atoms: _389  and  _391
REMARK  153  A    between atoms: _391  and  _392
REMARK  154  A    between atoms: _391  and  _394
REMARK  155  A    between atoms: _394  and  _395
REMARK                            x       y       z     vdW  Elec       q    Type
REMARK                         _______ _______ _______ _____ _____    ______ ____
ROOT
ATOM      1  O   HOH     1      26.753 -10.501  18.953  0.00  0.00    +0.000 OA
ENDROOT
TORSDOF 0
REMARK  Name = ../refined-set-2016/3arq/3arq_pocket.pdb
REMARK  155 active torsions:
REMARK  status: ('A' for Active; 'I' for Inactive)
REMARK    1  A    between atoms: _1  and  _3
REMARK    2  A    between atoms: _3  and  _4
REMARK    3  A    between atoms: _3  and  _6
REMARK    4  A    between atoms: _6  and  _7
REMARK    5  A    between atoms: _17  and  _19
REMARK    6  A    between atoms: _19  and  _20
REMARK    7  A    between atoms: _19  and  _22
REMARK    8  A    between atoms: _22  and  _23
REMARK    9  A    between atoms: _29  and  _31
REMARK   10  A    between atoms: _31  and  _32
REMARK   11  A    between atoms: _31  and  _34
REMARK   12  A    between atoms: _34  and  _35
REMARK   13  A    between atoms: _37  and  _39
REMARK   14  A    between atoms: _39  and  _40
REMARK   15  A    between atoms: _39  and  _42
REMARK   16  A    between atoms: _45  and  _47
REMARK   17  A    between atoms: _47  and  _48
REMARK   18  A    between atoms: _50  and  _52
REMARK   19  A    between atoms: _52  and  _53
REMARK   20  A    between atoms: _52  and  _55
REMARK   21  A    between atoms: _55  and  _56
REMARK   22  A    between atoms: _66  and  _68
REMARK   23  A    between atoms: _68  and  _69
REMARK   24  A    between atoms: _68  and  _71
REMARK   25  A    between atoms: _71  and  _72
REMARK   26  A    between atoms: _75  and  _77
REMARK   27  A    between atoms: _77  and  _78
REMARK   28  A    between atoms: _77  and  _80
REMARK   29  A    between atoms: _80  and  _81
REMARK   30  A    between atoms: _86  and  _87
REMARK   31  A    between atoms: _89  and  _91
REMARK   32  A    between atoms: _91  and  _92
REMARK   33  A    between atoms: _91  and  _94
REMARK   34  A    between atoms: _94  and  _95
REMARK   35  A    between atoms: _95  and  _96
REMARK   36  A    between atoms: _99  and  _101
REMARK   37  A    between atoms: _101  and  _102
REMARK   38  A    between atoms: _101  and  _104
REMARK   39  A    between atoms: _104  and  _105
REMARK   40  A    between atoms: _111  and  _113
REMARK   41  A    between atoms: _113  and  _114
REMARK   42  A    between atoms: _116  and  _118
REMARK   43  A    between atoms: _118  and  _119
REMARK   44  A    between atoms: _121  and  _123
REMARK   45  A    between atoms: _123  and  _124
REMARK   46  A    between atoms: _126  and  _128
REMARK   47  A    between atoms: _128  and  _129
REMARK   48  A    between atoms: _132  and  _134
REMARK   49  A    between atoms: _134  and  _135
REMARK   50  A    between atoms: _138  and  _140
REMARK   51  A    between atoms: _140  and  _141
REMARK   52  A    between atoms: _144  and  _146
REMARK   53  A    between atoms: _146  and  _147
REMARK   54  A    between atoms: _146  and  _149
REMARK   55  A    between atoms: _149  and  _150
REMARK   56  A    between atoms: _153  and  _155
REMARK   57  A    between atoms: _155  and  _156
REMARK   58  A    between atoms: _155  and  _158
REMARK   59  A    between atoms: _158  and  _159
REMARK   60  A    between atoms: _159  and  _160
REMARK   61  A    between atoms: _160  and  _161
REMARK   62  A    between atoms: _161  and  _162
REMARK   63  A    between atoms: _166  and  _168
REMARK   64  A    between atoms: _168  and  _169
REMARK   65  A    between atoms: _171  and  _173
REMARK   66  A    between atoms: _173  and  _174
REMARK   67  A    between atoms: _173  and  _176
REMARK   68  A    between atoms: _179  and  _181
REMARK   69  A    between atoms: _181  and  _182
REMARK   70  A    between atoms: _184  and  _186
REMARK   71  A    between atoms: _186  and  _187
REMARK   72  A    between atoms: _186  and  _189
REMARK   73  A    between atoms: _189  and  _190
REMARK   74  A    between atoms: _193  and  _195
REMARK   75  A    between atoms: _195  and  _196
REMARK   76  A    between atoms: _195  and  _198
REMARK   77  A    between atoms: _198  and  _199
REMARK   78  A    between atoms: _199  and  _200
REMARK   79  A    between atoms: _200  and  _201
REMARK   80  A    between atoms: _201  and  _202
REMARK   81  A    between atoms: _206  and  _208
REMARK   82  A    between atoms: _208  and  _209
REMARK   83  A    between atoms: _208  and  _211
REMARK   84  A    between atoms: _211  and  _212
REMARK   85  A    between atoms: _212  and  _213
REMARK   86  A    between atoms: _215  and  _217
REMARK   87  A    between atoms: _217  and  _218
REMARK   88  A    between atoms: _217  and  _220
REMARK   89  A    between atoms: _220  and  _221
REMARK   90  A    between atoms: _226  and  _227
REMARK   91  A    between atoms: _229  and  _231
REMARK   92  A    between atoms: _231  and  _232
REMARK   93  A    between atoms: _231  and  _234
REMARK   94  A    between atoms: _234  and  _235
REMARK   95  A    between atoms: _238  and  _240
REMARK   96  A    between atoms: _240  and  _241
REMARK   97  A    between atoms: _240  and  _243
REMARK   98  A    between atoms: _243  and  _244
REMARK   99  A    between atoms: _250  and  _252
REMARK  100  A    between atoms: _252  and  _253
REMARK  101  A    between atoms: _252  and  _255
REMARK  102  A    between atoms: _255  and  _256
REMARK  103  A    between atoms: _261  and  _262
REMARK  104  A    between atoms: _264  and  _266
REMARK  105  A    between atoms: _266  and  _267
REMARK  106  A    between atoms: _269  and  _271
REMARK  107  A    between atoms: _271  and  _272
REMARK  108  A    between atoms: _274  and  _276
REMARK  109  A    between atoms: _276  and  _277
REMARK  110  A    between atoms: _276  and  _279
REMARK  111  A    between atoms: _279  and  _280
REMARK  112  A    between atoms: _290  and  _292
REMARK  113  A    between atoms: _292  and  _293
REMARK  114  A    between atoms: _292  and  _295
REMARK  115  A    between atoms: _295  and  _296
REMARK  116  A    between atoms: _301  and  _303
REMARK  117  A    between atoms: _303  and  _304
REMARK  118  A    between atoms: _303  and  _306
REMARK  119  A    between atoms: _306  and  _307
REMARK  120  A    between atoms: _307  and  _308
REMARK  121  A    between atoms: _313  and  _315
REMARK  122  A    between atoms: _315  and  _316
REMARK  123  A    between atoms: _315  and  _318
REMARK  124  A    between atoms: _318  and  _319
REMARK  125  A    between atoms: _324  and  _325
REMARK  126  A    between atoms: _327  and  _329
REMARK  127  A    between atoms: _329  and  _330
REMARK  128  A    between atoms: _329  and  _332
REMARK  129  A    between atoms: _332  and  _333
REMARK  130  A    between atoms: _338  and  _339
REMARK  131  A    between atoms: _341  and  _343
REMARK  132  A    between atoms: _343  and  _344
REMARK  133  A    between atoms: _343  and  _346
REMARK  134  A    between atoms: _346  and  _347
REMARK  135  A    between atoms: _347  and  _348
REMARK  136  A    between atoms: _348  and  _349
REMARK  137  A    between atoms: _358  and  _360
REMARK  138  A    between atoms: _360  and  _361
REMARK  139  A    between atoms: _360  and  _363
REMARK  140  A    between atoms: _363  and  _364
REMARK  141  A    between atoms: _364  and  _365
REMARK  142  A    between atoms: _365  and  _366
REMARK  143  A    between atoms: _366  and  _367
REMARK  144  A    between atoms: _371  and  _373
REMARK  145  A    between atoms: _373  and  _374
REMARK  146  A    between atoms: _373  and  _376
REMARK  147  A    between atoms: _376  and  _377
REMARK  148  A    between atoms: _377  and  _378
REMARK  149  A    between atoms: _381  and  _383
REMARK  150  A    between atoms: _383  and  _384
REMARK  151  A    between atoms: _383  and  _386
REMARK  152  A    between atoms: _389  and  _391
REMARK  153  A    between atoms: _391  and  _392
REMARK  154  A    between atoms: _391  and  _394
REMARK  155  A    between atoms: _394  and  _395
REMARK                            x       y       z     vdW  Elec       q    Type
REMARK                         _______ _______ _______ _____ _____    ______ ____
ROOT
ATOM      1  O   HOH     1      10.218  -4.270  26.070  0.00  0.00    +0.000 OA
ENDROOT
TORSDOF 0
REMARK  Name = ../refined-set-2016/3arq/3arq_pocket.pdb
REMARK  155 active torsions:
REMARK  status: ('A' for Active; 'I' for Inactive)
REMARK    1  A    between atoms: _1  and  _3
REMARK    2  A    between atoms: _3  and  _4
REMARK    3  A    between atoms: _3  and  _6
REMARK    4  A    between atoms: _6  and  _7
REMARK    5  A    between atoms: _17  and  _19
REMARK    6  A    between atoms: _19  and  _20
REMARK    7  A    between atoms: _19  and  _22
REMARK    8  A    between atoms: _22  and  _23
REMARK    9  A    between atoms: _29  and  _31
REMARK   10  A    between atoms: _31  and  _32
REMARK   11  A    between atoms: _31  and  _34
REMARK   12  A    between atoms: _34  and  _35
REMARK   13  A    between atoms: _37  and  _39
REMARK   14  A    between atoms: _39  and  _40
REMARK   15  A    between atoms: _39  and  _42
REMARK   16  A    between atoms: _45  and  _47
REMARK   17  A    between atoms: _47  and  _48
REMARK   18  A    between atoms: _50  and  _52
REMARK   19  A    between atoms: _52  and  _53
REMARK   20  A    between atoms: _52  and  _55
REMARK   21  A    between atoms: _55  and  _56
REMARK   22  A    between atoms: _66  and  _68
REMARK   23  A    between atoms: _68  and  _69
REMARK   24  A    between atoms: _68  and  _71
REMARK   25  A    between atoms: _71  and  _72
REMARK   26  A    between atoms: _75  and  _77
REMARK   27  A    between atoms: _77  and  _78
REMARK   28  A    between atoms: _77  and  _80
REMARK   29  A    between atoms: _80  and  _81
REMARK   30  A    between atoms: _86  and  _87
REMARK   31  A    between atoms: _89  and  _91
REMARK   32  A    between atoms: _91  and  _92
REMARK   33  A    between atoms: _91  and  _94
REMARK   34  A    between atoms: _94  and  _95
REMARK   35  A    between atoms: _95  and  _96
REMARK   36  A    between atoms: _99  and  _101
REMARK   37  A    between atoms: _101  and  _102
REMARK   38  A    between atoms: _101  and  _104
REMARK   39  A    between atoms: _104  and  _105
REMARK   40  A    between atoms: _111  and  _113
REMARK   41  A    between atoms: _113  and  _114
REMARK   42  A    between atoms: _116  and  _118
REMARK   43  A    between atoms: _118  and  _119
REMARK   44  A    between atoms: _121  and  _123
REMARK   45  A    between atoms: _123  and  _124
REMARK   46  A    between atoms: _126  and  _128
REMARK   47  A    between atoms: _128  and  _129
REMARK   48  A    between atoms: _132  and  _134
REMARK   49  A    between atoms: _134  and  _135
REMARK   50  A    between atoms: _138  and  _140
REMARK   51  A    between atoms: _140  and  _141
REMARK   52  A    between atoms: _144  and  _146
REMARK   53  A    between atoms: _146  and  _147
REMARK   54  A    between atoms: _146  and  _149
REMARK   55  A    between atoms: _149  and  _150
REMARK   56  A    between atoms: _153  and  _155
REMARK   57  A    between atoms: _155  and  _156
REMARK   58  A    between atoms: _155  and  _158
REMARK   59  A    between atoms: _158  and  _159
REMARK   60  A    between atoms: _159  and  _160
REMARK   61  A    between atoms: _160  and  _161
REMARK   62  A    between atoms: _161  and  _162
REMARK   63  A    between atoms: _166  and  _168
REMARK   64  A    between atoms: _168  and  _169
REMARK   65  A    between atoms: _171  and  _173
REMARK   66  A    between atoms: _173  and  _174
REMARK   67  A    between atoms: _173  and  _176
REMARK   68  A    between atoms: _179  and  _181
REMARK   69  A    between atoms: _181  and  _182
REMARK   70  A    between atoms: _184  and  _186
REMARK   71  A    between atoms: _186  and  _187
REMARK   72  A    between atoms: _186  and  _189
REMARK   73  A    between atoms: _189  and  _190
REMARK   74  A    between atoms: _193  and  _195
REMARK   75  A    between atoms: _195  and  _196
REMARK   76  A    between atoms: _195  and  _198
REMARK   77  A    between atoms: _198  and  _199
REMARK   78  A    between atoms: _199  and  _200
REMARK   79  A    between atoms: _200  and  _201
REMARK   80  A    between atoms: _201  and  _202
REMARK   81  A    between atoms: _206  and  _208
REMARK   82  A    between atoms: _208  and  _209
REMARK   83  A    between atoms: _208  and  _211
REMARK   84  A    between atoms: _211  and  _212
REMARK   85  A    between atoms: _212  and  _213
REMARK   86  A    between atoms: _215  and  _217
REMARK   87  A    between atoms: _217  and  _218
REMARK   88  A    between atoms: _217  and  _220
REMARK   89  A    between atoms: _220  and  _221
REMARK   90  A    between atoms: _226  and  _227
REMARK   91  A    between atoms: _229  and  _231
REMARK   92  A    between atoms: _231  and  _232
REMARK   93  A    between atoms: _231  and  _234
REMARK   94  A    between atoms: _234  and  _235
REMARK   95  A    between atoms: _238  and  _240
REMARK   96  A    between atoms: _240  and  _241
REMARK   97  A    between atoms: _240  and  _243
REMARK   98  A    between atoms: _243  and  _244
REMARK   99  A    between atoms: _250  and  _252
REMARK  100  A    between atoms: _252  and  _253
REMARK  101  A    between atoms: _252  and  _255
REMARK  102  A    between atoms: _255  and  _256
REMARK  103  A    between atoms: _261  and  _262
REMARK  104  A    between atoms: _264  and  _266
REMARK  105  A    between atoms: _266  and  _267
REMARK  106  A    between atoms: _269  and  _271
REMARK  107  A    between atoms: _271  and  _272
REMARK  108  A    between atoms: _274  and  _276
REMARK  109  A    between atoms: _276  and  _277
REMARK  110  A    between atoms: _276  and  _279
REMARK  111  A    between atoms: _279  and  _280
REMARK  112  A    between atoms: _290  and  _292
REMARK  113  A    between atoms: _292  and  _293
REMARK  114  A    between atoms: _292  and  _295
REMARK  115  A    between atoms: _295  and  _296
REMARK  116  A    between atoms: _301  and  _303
REMARK  117  A    between atoms: _303  and  _304
REMARK  118  A    between atoms: _303  and  _306
REMARK  119  A    between atoms: _306  and  _307
REMARK  120  A    between atoms: _307  and  _308
REMARK  121  A    between atoms: _313  and  _315
REMARK  122  A    between atoms: _315  and  _316
REMARK  123  A    between atoms: _315  and  _318
REMARK  124  A    between atoms: _318  and  _319
REMARK  125  A    between atoms: _324  and  _325
REMARK  126  A    between atoms: _327  and  _329
REMARK  127  A    between atoms: _329  and  _330
REMARK  128  A    between atoms: _329  and  _332
REMARK  129  A    between atoms: _332  and  _333
REMARK  130  A    between atoms: _338  and  _339
REMARK  131  A    between atoms: _341  and  _343
REMARK  132  A    between atoms: _343  and  _344
REMARK  133  A    between atoms: _343  and  _346
REMARK  134  A    between atoms: _346  and  _347
REMARK  135  A    between atoms: _347  and  _348
REMARK  136  A    between atoms: _348  and  _349
REMARK  137  A    between atoms: _358  and  _360
REMARK  138  A    between atoms: _360  and  _361
REMARK  139  A    between atoms: _360  and  _363
REMARK  140  A    between atoms: _363  and  _364
REMARK  141  A    between atoms: _364  and  _365
REMARK  142  A    between atoms: _365  and  _366
REMARK  143  A    between atoms: _366  and  _367
REMARK  144  A    between atoms: _371  and  _373
REMARK  145  A    between atoms: _373  and  _374
REMARK  146  A    between atoms: _373  and  _376
REMARK  147  A    between atoms: _376  and  _377
REMARK  148  A    between atoms: _377  and  _378
REMARK  149  A    between atoms: _381  and  _383
REMARK  150  A    between atoms: _383  and  _384
REMARK  151  A    between atoms: _383  and  _386
REMARK  152  A    between atoms: _389  and  _391
REMARK  153  A    between atoms: _391  and  _392
REMARK  154  A    between atoms: _391  and  _394
REMARK  155  A    between atoms: _394  and  _395
REMARK                            x       y       z     vdW  Elec       q    Type
REMARK                         _______ _______ _______ _____ _____    ______ ____
ROOT
ATOM      1  O   HOH     1       9.570  -9.392  20.405  0.00  0.00    +0.000 OA
ENDROOT
TORSDOF 0
REMARK  Name = ../refined-set-2016/3arq/3arq_pocket.pdb
REMARK  155 active torsions:
REMARK  status: ('A' for Active; 'I' for Inactive)
REMARK    1  A    between atoms: _1  and  _3
REMARK    2  A    between atoms: _3  and  _4
REMARK    3  A    between atoms: _3  and  _6
REMARK    4  A    between atoms: _6  and  _7
REMARK    5  A    between atoms: _17  and  _19
REMARK    6  A    between atoms: _19  and  _20
REMARK    7  A    between atoms: _19  and  _22
REMARK    8  A    between atoms: _22  and  _23
REMARK    9  A    between atoms: _29  and  _31
REMARK   10  A    between atoms: _31  and  _32
REMARK   11  A    between atoms: _31  and  _34
REMARK   12  A    between atoms: _34  and  _35
REMARK   13  A    between atoms: _37  and  _39
REMARK   14  A    between atoms: _39  and  _40
REMARK   15  A    between atoms: _39  and  _42
REMARK   16  A    between atoms: _45  and  _47
REMARK   17  A    between atoms: _47  and  _48
REMARK   18  A    between atoms: _50  and  _52
REMARK   19  A    between atoms: _52  and  _53
REMARK   20  A    between atoms: _52  and  _55
REMARK   21  A    between atoms: _55  and  _56
REMARK   22  A    between atoms: _66  and  _68
REMARK   23  A    between atoms: _68  and  _69
REMARK   24  A    between atoms: _68  and  _71
REMARK   25  A    between atoms: _71  and  _72
REMARK   26  A    between atoms: _75  and  _77
REMARK   27  A    between atoms: _77  and  _78
REMARK   28  A    between atoms: _77  and  _80
REMARK   29  A    between atoms: _80  and  _81
REMARK   30  A    between atoms: _86  and  _87
REMARK   31  A    between atoms: _89  and  _91
REMARK   32  A    between atoms: _91  and  _92
REMARK   33  A    between atoms: _91  and  _94
REMARK   34  A    between atoms: _94  and  _95
REMARK   35  A    between atoms: _95  and  _96
REMARK   36  A    between atoms: _99  and  _101
REMARK   37  A    between atoms: _101  and  _102
REMARK   38  A    between atoms: _101  and  _104
REMARK   39  A    between atoms: _104  and  _105
REMARK   40  A    between atoms: _111  and  _113
REMARK   41  A    between atoms: _113  and  _114
REMARK   42  A    between atoms: _116  and  _118
REMARK   43  A    between atoms: _118  and  _119
REMARK   44  A    between atoms: _121  and  _123
REMARK   45  A    between atoms: _123  and  _124
REMARK   46  A    between atoms: _126  and  _128
REMARK   47  A    between atoms: _128  and  _129
REMARK   48  A    between atoms: _132  and  _134
REMARK   49  A    between atoms: _134  and  _135
REMARK   50  A    between atoms: _138  and  _140
REMARK   51  A    between atoms: _140  and  _141
REMARK   52  A    between atoms: _144  and  _146
REMARK   53  A    between atoms: _146  and  _147
REMARK   54  A    between atoms: _146  and  _149
REMARK   55  A    between atoms: _149  and  _150
REMARK   56  A    between atoms: _153  and  _155
REMARK   57  A    between atoms: _155  and  _156
REMARK   58  A    between atoms: _155  and  _158
REMARK   59  A    between atoms: _158  and  _159
REMARK   60  A    between atoms: _159  and  _160
REMARK   61  A    between atoms: _160  and  _161
REMARK   62  A    between atoms: _161  and  _162
REMARK   63  A    between atoms: _166  and  _168
REMARK   64  A    between atoms: _168  and  _169
REMARK   65  A    between atoms: _171  and  _173
REMARK   66  A    between atoms: _173  and  _174
REMARK   67  A    between atoms: _173  and  _176
REMARK   68  A    between atoms: _179  and  _181
REMARK   69  A    between atoms: _181  and  _182
REMARK   70  A    between atoms: _184  and  _186
REMARK   71  A    between atoms: _186  and  _187
REMARK   72  A    between atoms: _186  and  _189
REMARK   73  A    between atoms: _189  and  _190
REMARK   74  A    between atoms: _193  and  _195
REMARK   75  A    between atoms: _195  and  _196
REMARK   76  A    between atoms: _195  and  _198
REMARK   77  A    between atoms: _198  and  _199
REMARK   78  A    between atoms: _199  and  _200
REMARK   79  A    between atoms: _200  and  _201
REMARK   80  A    between atoms: _201  and  _202
REMARK   81  A    between atoms: _206  and  _208
REMARK   82  A    between atoms: _208  and  _209
REMARK   83  A    between atoms: _208  and  _211
REMARK   84  A    between atoms: _211  and  _212
REMARK   85  A    between atoms: _212  and  _213
REMARK   86  A    between atoms: _215  and  _217
REMARK   87  A    between atoms: _217  and  _218
REMARK   88  A    between atoms: _217  and  _220
REMARK   89  A    between atoms: _220  and  _221
REMARK   90  A    between atoms: _226  and  _227
REMARK   91  A    between atoms: _229  and  _231
REMARK   92  A    between atoms: _231  and  _232
REMARK   93  A    between atoms: _231  and  _234
REMARK   94  A    between atoms: _234  and  _235
REMARK   95  A    between atoms: _238  and  _240
REMARK   96  A    between atoms: _240  and  _241
REMARK   97  A    between atoms: _240  and  _243
REMARK   98  A    between atoms: _243  and  _244
REMARK   99  A    between atoms: _250  and  _252
REMARK  100  A    between atoms: _252  and  _253
REMARK  101  A    between atoms: _252  and  _255
REMARK  102  A    between atoms: _255  and  _256
REMARK  103  A    between atoms: _261  and  _262
REMARK  104  A    between atoms: _264  and  _266
REMARK  105  A    between atoms: _266  and  _267
REMARK  106  A    between atoms: _269  and  _271
REMARK  107  A    between atoms: _271  and  _272
REMARK  108  A    between atoms: _274  and  _276
REMARK  109  A    between atoms: _276  and  _277
REMARK  110  A    between atoms: _276  and  _279
REMARK  111  A    between atoms: _279  and  _280
REMARK  112  A    between atoms: _290  and  _292
REMARK  113  A    between atoms: _292  and  _293
REMARK  114  A    between atoms: _292  and  _295
REMARK  115  A    between atoms: _295  and  _296
REMARK  116  A    between atoms: _301  and  _303
REMARK  117  A    between atoms: _303  and  _304
REMARK  118  A    between atoms: _303  and  _306
REMARK  119  A    between atoms: _306  and  _307
REMARK  120  A    between atoms: _307  and  _308
REMARK  121  A    between atoms: _313  and  _315
REMARK  122  A    between atoms: _315  and  _316
REMARK  123  A    between atoms: _315  and  _318
REMARK  124  A    between atoms: _318  and  _319
REMARK  125  A    between atoms: _324  and  _325
REMARK  126  A    between atoms: _327  and  _329
REMARK  127  A    between atoms: _329  and  _330
REMARK  128  A    between atoms: _329  and  _332
REMARK  129  A    between atoms: _332  and  _333
REMARK  130  A    between atoms: _338  and  _339
REMARK  131  A    between atoms: _341  and  _343
REMARK  132  A    between atoms: _343  and  _344
REMARK  133  A    between atoms: _343  and  _346
REMARK  134  A    between atoms: _346  and  _347
REMARK  135  A    between atoms: _347  and  _348
REMARK  136  A    between atoms: _348  and  _349
REMARK  137  A    between atoms: _358  and  _360
REMARK  138  A    between atoms: _360  and  _361
REMARK  139  A    between atoms: _360  and  _363
REMARK  140  A    between atoms: _363  and  _364
REMARK  141  A    between atoms: _364  and  _365
REMARK  142  A    between atoms: _365  and  _366
REMARK  143  A    between atoms: _366  and  _367
REMARK  144  A    between atoms: _371  and  _373
REMARK  145  A    between atoms: _373  and  _374
REMARK  146  A    between atoms: _373  and  _376
REMARK  147  A    between atoms: _376  and  _377
REMARK  148  A    between atoms: _377  and  _378
REMARK  149  A    between atoms: _381  and  _383
REMARK  150  A    between atoms: _383  and  _384
REMARK  151  A    between atoms: _383  and  _386
REMARK  152  A    between atoms: _389  and  _391
REMARK  153  A    between atoms: _391  and  _392
REMARK  154  A    between atoms: _391  and  _394
REMARK  155  A    between atoms: _394  and  _395
REMARK                            x       y       z     vdW  Elec       q    Type
REMARK                         _______ _______ _______ _____ _____    ______ ____
ROOT
ATOM      1  O   HOH     1      22.150 -18.208  19.557  0.00  0.00    +0.000 OA
ENDROOT
TORSDOF 0
REMARK  Name = ../refined-set-2016/3arq/3arq_pocket.pdb
REMARK  155 active torsions:
REMARK  status: ('A' for Active; 'I' for Inactive)
REMARK    1  A    between atoms: _1  and  _3
REMARK    2  A    between atoms: _3  and  _4
REMARK    3  A    between atoms: _3  and  _6
REMARK    4  A    between atoms: _6  and  _7
REMARK    5  A    between atoms: _17  and  _19
REMARK    6  A    between atoms: _19  and  _20
REMARK    7  A    between atoms: _19  and  _22
REMARK    8  A    between atoms: _22  and  _23
REMARK    9  A    between atoms: _29  and  _31
REMARK   10  A    between atoms: _31  and  _32
REMARK   11  A    between atoms: _31  and  _34
REMARK   12  A    between atoms: _34  and  _35
REMARK   13  A    between atoms: _37  and  _39
REMARK   14  A    between atoms: _39  and  _40
REMARK   15  A    between atoms: _39  and  _42
REMARK   16  A    between atoms: _45  and  _47
REMARK   17  A    between atoms: _47  and  _48
REMARK   18  A    between atoms: _50  and  _52
REMARK   19  A    between atoms: _52  and  _53
REMARK   20  A    between atoms: _52  and  _55
REMARK   21  A    between atoms: _55  and  _56
REMARK   22  A    between atoms: _66  and  _68
REMARK   23  A    between atoms: _68  and  _69
REMARK   24  A    between atoms: _68  and  _71
REMARK   25  A    between atoms: _71  and  _72
REMARK   26  A    between atoms: _75  and  _77
REMARK   27  A    between atoms: _77  and  _78
REMARK   28  A    between atoms: _77  and  _80
REMARK   29  A    between atoms: _80  and  _81
REMARK   30  A    between atoms: _86  and  _87
REMARK   31  A    between atoms: _89  and  _91
REMARK   32  A    between atoms: _91  and  _92
REMARK   33  A    between atoms: _91  and  _94
REMARK   34  A    between atoms: _94  and  _95
REMARK   35  A    between atoms: _95  and  _96
REMARK   36  A    between atoms: _99  and  _101
REMARK   37  A    between atoms: _101  and  _102
REMARK   38  A    between atoms: _101  and  _104
REMARK   39  A    between atoms: _104  and  _105
REMARK   40  A    between atoms: _111  and  _113
REMARK   41  A    between atoms: _113  and  _114
REMARK   42  A    between atoms: _116  and  _118
REMARK   43  A    between atoms: _118  and  _119
REMARK   44  A    between atoms: _121  and  _123
REMARK   45  A    between atoms: _123  and  _124
REMARK   46  A    between atoms: _126  and  _128
REMARK   47  A    between atoms: _128  and  _129
REMARK   48  A    between atoms: _132  and  _134
REMARK   49  A    between atoms: _134  and  _135
REMARK   50  A    between atoms: _138  and  _140
REMARK   51  A    between atoms: _140  and  _141
REMARK   52  A    between atoms: _144  and  _146
REMARK   53  A    between atoms: _146  and  _147
REMARK   54  A    between atoms: _146  and  _149
REMARK   55  A    between atoms: _149  and  _150
REMARK   56  A    between atoms: _153  and  _155
REMARK   57  A    between atoms: _155  and  _156
REMARK   58  A    between atoms: _155  and  _158
REMARK   59  A    between atoms: _158  and  _159
REMARK   60  A    between atoms: _159  and  _160
REMARK   61  A    between atoms: _160  and  _161
REMARK   62  A    between atoms: _161  and  _162
REMARK   63  A    between atoms: _166  and  _168
REMARK   64  A    between atoms: _168  and  _169
REMARK   65  A    between atoms: _171  and  _173
REMARK   66  A    between atoms: _173  and  _174
REMARK   67  A    between atoms: _173  and  _176
REMARK   68  A    between atoms: _179  and  _181
REMARK   69  A    between atoms: _181  and  _182
REMARK   70  A    between atoms: _184  and  _186
REMARK   71  A    between atoms: _186  and  _187
REMARK   72  A    between atoms: _186  and  _189
REMARK   73  A    between atoms: _189  and  _190
REMARK   74  A    between atoms: _193  and  _195
REMARK   75  A    between atoms: _195  and  _196
REMARK   76  A    between atoms: _195  and  _198
REMARK   77  A    between atoms: _198  and  _199
REMARK   78  A    between atoms: _199  and  _200
REMARK   79  A    between atoms: _200  and  _201
REMARK   80  A    between atoms: _201  and  _202
REMARK   81  A    between atoms: _206  and  _208
REMARK   82  A    between atoms: _208  and  _209
REMARK   83  A    between atoms: _208  and  _211
REMARK   84  A    between atoms: _211  and  _212
REMARK   85  A    between atoms: _212  and  _213
REMARK   86  A    between atoms: _215  and  _217
REMARK   87  A    between atoms: _217  and  _218
REMARK   88  A    between atoms: _217  and  _220
REMARK   89  A    between atoms: _220  and  _221
REMARK   90  A    between atoms: _226  and  _227
REMARK   91  A    between atoms: _229  and  _231
REMARK   92  A    between atoms: _231  and  _232
REMARK   93  A    between atoms: _231  and  _234
REMARK   94  A    between atoms: _234  and  _235
REMARK   95  A    between atoms: _238  and  _240
REMARK   96  A    between atoms: _240  and  _241
REMARK   97  A    between atoms: _240  and  _243
REMARK   98  A    between atoms: _243  and  _244
REMARK   99  A    between atoms: _250  and  _252
REMARK  100  A    between atoms: _252  and  _253
REMARK  101  A    between atoms: _252  and  _255
REMARK  102  A    between atoms: _255  and  _256
REMARK  103  A    between atoms: _261  and  _262
REMARK  104  A    between atoms: _264  and  _266
REMARK  105  A    between atoms: _266  and  _267
REMARK  106  A    between atoms: _269  and  _271
REMARK  107  A    between atoms: _271  and  _272
REMARK  108  A    between atoms: _274  and  _276
REMARK  109  A    between atoms: _276  and  _277
REMARK  110  A    between atoms: _276  and  _279
REMARK  111  A    between atoms: _279  and  _280
REMARK  112  A    between atoms: _290  and  _292
REMARK  113  A    between atoms: _292  and  _293
REMARK  114  A    between atoms: _292  and  _295
REMARK  115  A    between atoms: _295  and  _296
REMARK  116  A    between atoms: _301  and  _303
REMARK  117  A    between atoms: _303  and  _304
REMARK  118  A    between atoms: _303  and  _306
REMARK  119  A    between atoms: _306  and  _307
REMARK  120  A    between atoms: _307  and  _308
REMARK  121  A    between atoms: _313  and  _315
REMARK  122  A    between atoms: _315  and  _316
REMARK  123  A    between atoms: _315  and  _318
REMARK  124  A    between atoms: _318  and  _319
REMARK  125  A    between atoms: _324  and  _325
REMARK  126  A    between atoms: _327  and  _329
REMARK  127  A    between atoms: _329  and  _330
REMARK  128  A    between atoms: _329  and  _332
REMARK  129  A    between atoms: _332  and  _333
REMARK  130  A    between atoms: _338  and  _339
REMARK  131  A    between atoms: _341  and  _343
REMARK  132  A    between atoms: _343  and  _344
REMARK  133  A    between atoms: _343  and  _346
REMARK  134  A    between atoms: _346  and  _347
REMARK  135  A    between atoms: _347  and  _348
REMARK  136  A    between atoms: _348  and  _349
REMARK  137  A    between atoms: _358  and  _360
REMARK  138  A    between atoms: _360  and  _361
REMARK  139  A    between atoms: _360  and  _363
REMARK  140  A    between atoms: _363  and  _364
REMARK  141  A    between atoms: _364  and  _365
REMARK  142  A    between atoms: _365  and  _366
REMARK  143  A    between atoms: _366  and  _367
REMARK  144  A    between atoms: _371  and  _373
REMARK  145  A    between atoms: _373  and  _374
REMARK  146  A    between atoms: _373  and  _376
REMARK  147  A    between atoms: _376  and  _377
REMARK  148  A    between atoms: _377  and  _378
REMARK  149  A    between atoms: _381  and  _383
REMARK  150  A    between atoms: _383  and  _384
REMARK  151  A    between atoms: _383  and  _386
REMARK  152  A    between atoms: _389  and  _391
REMARK  153  A    between atoms: _391  and  _392
REMARK  154  A    between atoms: _391  and  _394
REMARK  155  A    between atoms: _394  and  _395
REMARK                            x       y       z     vdW  Elec       q    Type
REMARK                         _______ _______ _______ _____ _____    ______ ____
ROOT
ATOM      1  O   HOH     1      23.910 -15.297  25.330  0.00  0.00    +0.000 OA
ENDROOT
TORSDOF 0
REMARK  Name = ../refined-set-2016/3arq/3arq_pocket.pdb
REMARK  155 active torsions:
REMARK  status: ('A' for Active; 'I' for Inactive)
REMARK    1  A    between atoms: _1  and  _3
REMARK    2  A    between atoms: _3  and  _4
REMARK    3  A    between atoms: _3  and  _6
REMARK    4  A    between atoms: _6  and  _7
REMARK    5  A    between atoms: _17  and  _19
REMARK    6  A    between atoms: _19  and  _20
REMARK    7  A    between atoms: _19  and  _22
REMARK    8  A    between atoms: _22  and  _23
REMARK    9  A    between atoms: _29  and  _31
REMARK   10  A    between atoms: _31  and  _32
REMARK   11  A    between atoms: _31  and  _34
REMARK   12  A    between atoms: _34  and  _35
REMARK   13  A    between atoms: _37  and  _39
REMARK   14  A    between atoms: _39  and  _40
REMARK   15  A    between atoms: _39  and  _42
REMARK   16  A    between atoms: _45  and  _47
REMARK   17  A    between atoms: _47  and  _48
REMARK   18  A    between atoms: _50  and  _52
REMARK   19  A    between atoms: _52  and  _53
REMARK   20  A    between atoms: _52  and  _55
REMARK   21  A    between atoms: _55  and  _56
REMARK   22  A    between atoms: _66  and  _68
REMARK   23  A    between atoms: _68  and  _69
REMARK   24  A    between atoms: _68  and  _71
REMARK   25  A    between atoms: _71  and  _72
REMARK   26  A    between atoms: _75  and  _77
REMARK   27  A    between atoms: _77  and  _78
REMARK   28  A    between atoms: _77  and  _80
REMARK   29  A    between atoms: _80  and  _81
REMARK   30  A    between atoms: _86  and  _87
REMARK   31  A    between atoms: _89  and  _91
REMARK   32  A    between atoms: _91  and  _92
REMARK   33  A    between atoms: _91  and  _94
REMARK   34  A    between atoms: _94  and  _95
REMARK   35  A    between atoms: _95  and  _96
REMARK   36  A    between atoms: _99  and  _101
REMARK   37  A    between atoms: _101  and  _102
REMARK   38  A    between atoms: _101  and  _104
REMARK   39  A    between atoms: _104  and  _105
REMARK   40  A    between atoms: _111  and  _113
REMARK   41  A    between atoms: _113  and  _114
REMARK   42  A    between atoms: _116  and  _118
REMARK   43  A    between atoms: _118  and  _119
REMARK   44  A    between atoms: _121  and  _123
REMARK   45  A    between atoms: _123  and  _124
REMARK   46  A    between atoms: _126  and  _128
REMARK   47  A    between atoms: _128  and  _129
REMARK   48  A    between atoms: _132  and  _134
REMARK   49  A    between atoms: _134  and  _135
REMARK   50  A    between atoms: _138  and  _140
REMARK   51  A    between atoms: _140  and  _141
REMARK   52  A    between atoms: _144  and  _146
REMARK   53  A    between atoms: _146  and  _147
REMARK   54  A    between atoms: _146  and  _149
REMARK   55  A    between atoms: _149  and  _150
REMARK   56  A    between atoms: _153  and  _155
REMARK   57  A    between atoms: _155  and  _156
REMARK   58  A    between atoms: _155  and  _158
REMARK   59  A    between atoms: _158  and  _159
REMARK   60  A    between atoms: _159  and  _160
REMARK   61  A    between atoms: _160  and  _161
REMARK   62  A    between atoms: _161  and  _162
REMARK   63  A    between atoms: _166  and  _168
REMARK   64  A    between atoms: _168  and  _169
REMARK   65  A    between atoms: _171  and  _173
REMARK   66  A    between atoms: _173  and  _174
REMARK   67  A    between atoms: _173  and  _176
REMARK   68  A    between atoms: _179  and  _181
REMARK   69  A    between atoms: _181  and  _182
REMARK   70  A    between atoms: _184  and  _186
REMARK   71  A    between atoms: _186  and  _187
REMARK   72  A    between atoms: _186  and  _189
REMARK   73  A    between atoms: _189  and  _190
REMARK   74  A    between atoms: _193  and  _195
REMARK   75  A    between atoms: _195  and  _196
REMARK   76  A    between atoms: _195  and  _198
REMARK   77  A    between atoms: _198  and  _199
REMARK   78  A    between atoms: _199  and  _200
REMARK   79  A    between atoms: _200  and  _201
REMARK   80  A    between atoms: _201  and  _202
REMARK   81  A    between atoms: _206  and  _208
REMARK   82  A    between atoms: _208  and  _209
REMARK   83  A    between atoms: _208  and  _211
REMARK   84  A    between atoms: _211  and  _212
REMARK   85  A    between atoms: _212  and  _213
REMARK   86  A    between atoms: _215  and  _217
REMARK   87  A    between atoms: _217  and  _218
REMARK   88  A    between atoms: _217  and  _220
REMARK   89  A    between atoms: _220  and  _221
REMARK   90  A    between atoms: _226  and  _227
REMARK   91  A    between atoms: _229  and  _231
REMARK   92  A    between atoms: _231  and  _232
REMARK   93  A    between atoms: _231  and  _234
REMARK   94  A    between atoms: _234  and  _235
REMARK   95  A    between atoms: _238  and  _240
REMARK   96  A    between atoms: _240  and  _241
REMARK   97  A    between atoms: _240  and  _243
REMARK   98  A    between atoms: _243  and  _244
REMARK   99  A    between atoms: _250  and  _252
REMARK  100  A    between atoms: _252  and  _253
REMARK  101  A    between atoms: _252  and  _255
REMARK  102  A    between atoms: _255  and  _256
REMARK  103  A    between atoms: _261  and  _262
REMARK  104  A    between atoms: _264  and  _266
REMARK  105  A    between atoms: _266  and  _267
REMARK  106  A    between atoms: _269  and  _271
REMARK  107  A    between atoms: _271  and  _272
REMARK  108  A    between atoms: _274  and  _276
REMARK  109  A    between atoms: _276  and  _277
REMARK  110  A    between atoms: _276  and  _279
REMARK  111  A    between atoms: _279  and  _280
REMARK  112  A    between atoms: _290  and  _292
REMARK  113  A    between atoms: _292  and  _293
REMARK  114  A    between atoms: _292  and  _295
REMARK  115  A    between atoms: _295  and  _296
REMARK  116  A    between atoms: _301  and  _303
REMARK  117  A    between atoms: _303  and  _304
REMARK  118  A    between atoms: _303  and  _306
REMARK  119  A    between atoms: _306  and  _307
REMARK  120  A    between atoms: _307  and  _308
REMARK  121  A    between atoms: _313  and  _315
REMARK  122  A    between atoms: _315  and  _316
REMARK  123  A    between atoms: _315  and  _318
REMARK  124  A    between atoms: _318  and  _319
REMARK  125  A    between atoms: _324  and  _325
REMARK  126  A    between atoms: _327  and  _329
REMARK  127  A    between atoms: _329  and  _330
REMARK  128  A    between atoms: _329  and  _332
REMARK  129  A    between atoms: _332  and  _333
REMARK  130  A    between atoms: _338  and  _339
REMARK  131  A    between atoms: _341  and  _343
REMARK  132  A    between atoms: _343  and  _344
REMARK  133  A    between atoms: _343  and  _346
REMARK  134  A    between atoms: _346  and  _347
REMARK  135  A    between atoms: _347  and  _348
REMARK  136  A    between atoms: _348  and  _349
REMARK  137  A    between atoms: _358  and  _360
REMARK  138  A    between atoms: _360  and  _361
REMARK  139  A    between atoms: _360  and  _363
REMARK  140  A    between atoms: _363  and  _364
REMARK  141  A    between atoms: _364  and  _365
REMARK  142  A    between atoms: _365  and  _366
REMARK  143  A    between atoms: _366  and  _367
REMARK  144  A    between atoms: _371  and  _373
REMARK  145  A    between atoms: _373  and  _374
REMARK  146  A    between atoms: _373  and  _376
REMARK  147  A    between atoms: _376  and  _377
REMARK  148  A    between atoms: _377  and  _378
REMARK  149  A    between atoms: _381  and  _383
REMARK  150  A    between atoms: _383  and  _384
REMARK  151  A    between atoms: _383  and  _386
REMARK  152  A    between atoms: _389  and  _391
REMARK  153  A    between atoms: _391  and  _392
REMARK  154  A    between atoms: _391  and  _394
REMARK  155  A    between atoms: _394  and  _395
REMARK                            x       y       z     vdW  Elec       q    Type
REMARK                         _______ _______ _______ _____ _____    ______ ____
ROOT
ATOM      1  O   HOH     1      27.076  -9.750  13.548  0.00  0.00    +0.000 OA
ENDROOT
TORSDOF 0
REMARK  Name = ../refined-set-2016/3arq/3arq_pocket.pdb
REMARK  155 active torsions:
REMARK  status: ('A' for Active; 'I' for Inactive)
REMARK    1  A    between atoms: _1  and  _3
REMARK    2  A    between atoms: _3  and  _4
REMARK    3  A    between atoms: _3  and  _6
REMARK    4  A    between atoms: _6  and  _7
REMARK    5  A    between atoms: _17  and  _19
REMARK    6  A    between atoms: _19  and  _20
REMARK    7  A    between atoms: _19  and  _22
REMARK    8  A    between atoms: _22  and  _23
REMARK    9  A    between atoms: _29  and  _31
REMARK   10  A    between atoms: _31  and  _32
REMARK   11  A    between atoms: _31  and  _34
REMARK   12  A    between atoms: _34  and  _35
REMARK   13  A    between atoms: _37  and  _39
REMARK   14  A    between atoms: _39  and  _40
REMARK   15  A    between atoms: _39  and  _42
REMARK   16  A    between atoms: _45  and  _47
REMARK   17  A    between atoms: _47  and  _48
REMARK   18  A    between atoms: _50  and  _52
REMARK   19  A    between atoms: _52  and  _53
REMARK   20  A    between atoms: _52  and  _55
REMARK   21  A    between atoms: _55  and  _56
REMARK   22  A    between atoms: _66  and  _68
REMARK   23  A    between atoms: _68  and  _69
REMARK   24  A    between atoms: _68  and  _71
REMARK   25  A    between atoms: _71  and  _72
REMARK   26  A    between atoms: _75  and  _77
REMARK   27  A    between atoms: _77  and  _78
REMARK   28  A    between atoms: _77  and  _80
REMARK   29  A    between atoms: _80  and  _81
REMARK   30  A    between atoms: _86  and  _87
REMARK   31  A    between atoms: _89  and  _91
REMARK   32  A    between atoms: _91  and  _92
REMARK   33  A    between atoms: _91  and  _94
REMARK   34  A    between atoms: _94  and  _95
REMARK   35  A    between atoms: _95  and  _96
REMARK   36  A    between atoms: _99  and  _101
REMARK   37  A    between atoms: _101  and  _102
REMARK   38  A    between atoms: _101  and  _104
REMARK   39  A    between atoms: _104  and  _105
REMARK   40  A    between atoms: _111  and  _113
REMARK   41  A    between atoms: _113  and  _114
REMARK   42  A    between atoms: _116  and  _118
REMARK   43  A    between atoms: _118  and  _119
REMARK   44  A    between atoms: _121  and  _123
REMARK   45  A    between atoms: _123  and  _124
REMARK   46  A    between atoms: _126  and  _128
REMARK   47  A    between atoms: _128  and  _129
REMARK   48  A    between atoms: _132  and  _134
REMARK   49  A    between atoms: _134  and  _135
REMARK   50  A    between atoms: _138  and  _140
REMARK   51  A    between atoms: _140  and  _141
REMARK   52  A    between atoms: _144  and  _146
REMARK   53  A    between atoms: _146  and  _147
REMARK   54  A    between atoms: _146  and  _149
REMARK   55  A    between atoms: _149  and  _150
REMARK   56  A    between atoms: _153  and  _155
REMARK   57  A    between atoms: _155  and  _156
REMARK   58  A    between atoms: _155  and  _158
REMARK   59  A    between atoms: _158  and  _159
REMARK   60  A    between atoms: _159  and  _160
REMARK   61  A    between atoms: _160  and  _161
REMARK   62  A    between atoms: _161  and  _162
REMARK   63  A    between atoms: _166  and  _168
REMARK   64  A    between atoms: _168  and  _169
REMARK   65  A    between atoms: _171  and  _173
REMARK   66  A    between atoms: _173  and  _174
REMARK   67  A    between atoms: _173  and  _176
REMARK   68  A    between atoms: _179  and  _181
REMARK   69  A    between atoms: _181  and  _182
REMARK   70  A    between atoms: _184  and  _186
REMARK   71  A    between atoms: _186  and  _187
REMARK   72  A    between atoms: _186  and  _189
REMARK   73  A    between atoms: _189  and  _190
REMARK   74  A    between atoms: _193  and  _195
REMARK   75  A    between atoms: _195  and  _196
REMARK   76  A    between atoms: _195  and  _198
REMARK   77  A    between atoms: _198  and  _199
REMARK   78  A    between atoms: _199  and  _200
REMARK   79  A    between atoms: _200  and  _201
REMARK   80  A    between atoms: _201  and  _202
REMARK   81  A    between atoms: _206  and  _208
REMARK   82  A    between atoms: _208  and  _209
REMARK   83  A    between atoms: _208  and  _211
REMARK   84  A    between atoms: _211  and  _212
REMARK   85  A    between atoms: _212  and  _213
REMARK   86  A    between atoms: _215  and  _217
REMARK   87  A    between atoms: _217  and  _218
REMARK   88  A    between atoms: _217  and  _220
REMARK   89  A    between atoms: _220  and  _221
REMARK   90  A    between atoms: _226  and  _227
REMARK   91  A    between atoms: _229  and  _231
REMARK   92  A    between atoms: _231  and  _232
REMARK   93  A    between atoms: _231  and  _234
REMARK   94  A    between atoms: _234  and  _235
REMARK   95  A    between atoms: _238  and  _240
REMARK   96  A    between atoms: _240  and  _241
REMARK   97  A    between atoms: _240  and  _243
REMARK   98  A    between atoms: _243  and  _244
REMARK   99  A    between atoms: _250  and  _252
REMARK  100  A    between atoms: _252  and  _253
REMARK  101  A    between atoms: _252  and  _255
REMARK  102  A    between atoms: _255  and  _256
REMARK  103  A    between atoms: _261  and  _262
REMARK  104  A    between atoms: _264  and  _266
REMARK  105  A    between atoms: _266  and  _267
REMARK  106  A    between atoms: _269  and  _271
REMARK  107  A    between atoms: _271  and  _272
REMARK  108  A    between atoms: _274  and  _276
REMARK  109  A    between atoms: _276  and  _277
REMARK  110  A    between atoms: _276  and  _279
REMARK  111  A    between atoms: _279  and  _280
REMARK  112  A    between atoms: _290  and  _292
REMARK  113  A    between atoms: _292  and  _293
REMARK  114  A    between atoms: _292  and  _295
REMARK  115  A    between atoms: _295  and  _296
REMARK  116  A    between atoms: _301  and  _303
REMARK  117  A    between atoms: _303  and  _304
REMARK  118  A    between atoms: _303  and  _306
REMARK  119  A    between atoms: _306  and  _307
REMARK  120  A    between atoms: _307  and  _308
REMARK  121  A    between atoms: _313  and  _315
REMARK  122  A    between atoms: _315  and  _316
REMARK  123  A    between atoms: _315  and  _318
REMARK  124  A    between atoms: _318  and  _319
REMARK  125  A    between atoms: _324  and  _325
REMARK  126  A    between atoms: _327  and  _329
REMARK  127  A    between atoms: _329  and  _330
REMARK  128  A    between atoms: _329  and  _332
REMARK  129  A    between atoms: _332  and  _333
REMARK  130  A    between atoms: _338  and  _339
REMARK  131  A    between atoms: _341  and  _343
REMARK  132  A    between atoms: _343  and  _344
REMARK  133  A    between atoms: _343  and  _346
REMARK  134  A    between atoms: _346  and  _347
REMARK  135  A    between atoms: _347  and  _348
REMARK  136  A    between atoms: _348  and  _349
REMARK  137  A    between atoms: _358  and  _360
REMARK  138  A    between atoms: _360  and  _361
REMARK  139  A    between atoms: _360  and  _363
REMARK  140  A    between atoms: _363  and  _364
REMARK  141  A    between atoms: _364  and  _365
REMARK  142  A    between atoms: _365  and  _366
REMARK  143  A    between atoms: _366  and  _367
REMARK  144  A    between atoms: _371  and  _373
REMARK  145  A    between atoms: _373  and  _374
REMARK  146  A    between atoms: _373  and  _376
REMARK  147  A    between atoms: _376  and  _377
REMARK  148  A    between atoms: _377  and  _378
REMARK  149  A    between atoms: _381  and  _383
REMARK  150  A    between atoms: _383  and  _384
REMARK  151  A    between atoms: _383  and  _386
REMARK  152  A    between atoms: _389  and  _391
REMARK  153  A    between atoms: _391  and  _392
REMARK  154  A    between atoms: _391  and  _394
REMARK  155  A    between atoms: _394  and  _395
REMARK                            x       y       z     vdW  Elec       q    Type
REMARK                         _______ _______ _______ _____ _____    ______ ____
ROOT
ATOM      1  O   HOH     1      21.567 -16.078  30.978  0.00  0.00    +0.000 OA
ENDROOT
TORSDOF 0
REMARK  Name = ../refined-set-2016/3arq/3arq_pocket.pdb
REMARK  155 active torsions:
REMARK  status: ('A' for Active; 'I' for Inactive)
REMARK    1  A    between atoms: _1  and  _3
REMARK    2  A    between atoms: _3  and  _4
REMARK    3  A    between atoms: _3  and  _6
REMARK    4  A    between atoms: _6  and  _7
REMARK    5  A    between atoms: _17  and  _19
REMARK    6  A    between atoms: _19  and  _20
REMARK    7  A    between atoms: _19  and  _22
REMARK    8  A    between atoms: _22  and  _23
REMARK    9  A    between atoms: _29  and  _31
REMARK   10  A    between atoms: _31  and  _32
REMARK   11  A    between atoms: _31  and  _34
REMARK   12  A    between atoms: _34  and  _35
REMARK   13  A    between atoms: _37  and  _39
REMARK   14  A    between atoms: _39  and  _40
REMARK   15  A    between atoms: _39  and  _42
REMARK   16  A    between atoms: _45  and  _47
REMARK   17  A    between atoms: _47  and  _48
REMARK   18  A    between atoms: _50  and  _52
REMARK   19  A    between atoms: _52  and  _53
REMARK   20  A    between atoms: _52  and  _55
REMARK   21  A    between atoms: _55  and  _56
REMARK   22  A    between atoms: _66  and  _68
REMARK   23  A    between atoms: _68  and  _69
REMARK   24  A    between atoms: _68  and  _71
REMARK   25  A    between atoms: _71  and  _72
REMARK   26  A    between atoms: _75  and  _77
REMARK   27  A    between atoms: _77  and  _78
REMARK   28  A    between atoms: _77  and  _80
REMARK   29  A    between atoms: _80  and  _81
REMARK   30  A    between atoms: _86  and  _87
REMARK   31  A    between atoms: _89  and  _91
REMARK   32  A    between atoms: _91  and  _92
REMARK   33  A    between atoms: _91  and  _94
REMARK   34  A    between atoms: _94  and  _95
REMARK   35  A    between atoms: _95  and  _96
REMARK   36  A    between atoms: _99  and  _101
REMARK   37  A    between atoms: _101  and  _102
REMARK   38  A    between atoms: _101  and  _104
REMARK   39  A    between atoms: _104  and  _105
REMARK   40  A    between atoms: _111  and  _113
REMARK   41  A    between atoms: _113  and  _114
REMARK   42  A    between atoms: _116  and  _118
REMARK   43  A    between atoms: _118  and  _119
REMARK   44  A    between atoms: _121  and  _123
REMARK   45  A    between atoms: _123  and  _124
REMARK   46  A    between atoms: _126  and  _128
REMARK   47  A    between atoms: _128  and  _129
REMARK   48  A    between atoms: _132  and  _134
REMARK   49  A    between atoms: _134  and  _135
REMARK   50  A    between atoms: _138  and  _140
REMARK   51  A    between atoms: _140  and  _141
REMARK   52  A    between atoms: _144  and  _146
REMARK   53  A    between atoms: _146  and  _147
REMARK   54  A    between atoms: _146  and  _149
REMARK   55  A    between atoms: _149  and  _150
REMARK   56  A    between atoms: _153  and  _155
REMARK   57  A    between atoms: _155  and  _156
REMARK   58  A    between atoms: _155  and  _158
REMARK   59  A    between atoms: _158  and  _159
REMARK   60  A    between atoms: _159  and  _160
REMARK   61  A    between atoms: _160  and  _161
REMARK   62  A    between atoms: _161  and  _162
REMARK   63  A    between atoms: _166  and  _168
REMARK   64  A    between atoms: _168  and  _169
REMARK   65  A    between atoms: _171  and  _173
REMARK   66  A    between atoms: _173  and  _174
REMARK   67  A    between atoms: _173  and  _176
REMARK   68  A    between atoms: _179  and  _181
REMARK   69  A    between atoms: _181  and  _182
REMARK   70  A    between atoms: _184  and  _186
REMARK   71  A    between atoms: _186  and  _187
REMARK   72  A    between atoms: _186  and  _189
REMARK   73  A    between atoms: _189  and  _190
REMARK   74  A    between atoms: _193  and  _195
REMARK   75  A    between atoms: _195  and  _196
REMARK   76  A    between atoms: _195  and  _198
REMARK   77  A    between atoms: _198  and  _199
REMARK   78  A    between atoms: _199  and  _200
REMARK   79  A    between atoms: _200  and  _201
REMARK   80  A    between atoms: _201  and  _202
REMARK   81  A    between atoms: _206  and  _208
REMARK   82  A    between atoms: _208  and  _209
REMARK   83  A    between atoms: _208  and  _211
REMARK   84  A    between atoms: _211  and  _212
REMARK   85  A    between atoms: _212  and  _213
REMARK   86  A    between atoms: _215  and  _217
REMARK   87  A    between atoms: _217  and  _218
REMARK   88  A    between atoms: _217  and  _220
REMARK   89  A    between atoms: _220  and  _221
REMARK   90  A    between atoms: _226  and  _227
REMARK   91  A    between atoms: _229  and  _231
REMARK   92  A    between atoms: _231  and  _232
REMARK   93  A    between atoms: _231  and  _234
REMARK   94  A    between atoms: _234  and  _235
REMARK   95  A    between atoms: _238  and  _240
REMARK   96  A    between atoms: _240  and  _241
REMARK   97  A    between atoms: _240  and  _243
REMARK   98  A    between atoms: _243  and  _244
REMARK   99  A    between atoms: _250  and  _252
REMARK  100  A    between atoms: _252  and  _253
REMARK  101  A    between atoms: _252  and  _255
REMARK  102  A    between atoms: _255  and  _256
REMARK  103  A    between atoms: _261  and  _262
REMARK  104  A    between atoms: _264  and  _266
REMARK  105  A    between atoms: _266  and  _267
REMARK  106  A    between atoms: _269  and  _271
REMARK  107  A    between atoms: _271  and  _272
REMARK  108  A    between atoms: _274  and  _276
REMARK  109  A    between atoms: _276  and  _277
REMARK  110  A    between atoms: _276  and  _279
REMARK  111  A    between atoms: _279  and  _280
REMARK  112  A    between atoms: _290  and  _292
REMARK  113  A    between atoms: _292  and  _293
REMARK  114  A    between atoms: _292  and  _295
REMARK  115  A    between atoms: _295  and  _296
REMARK  116  A    between atoms: _301  and  _303
REMARK  117  A    between atoms: _303  and  _304
REMARK  118  A    between atoms: _303  and  _306
REMARK  119  A    between atoms: _306  and  _307
REMARK  120  A    between atoms: _307  and  _308
REMARK  121  A    between atoms: _313  and  _315
REMARK  122  A    between atoms: _315  and  _316
REMARK  123  A    between atoms: _315  and  _318
REMARK  124  A    between atoms: _318  and  _319
REMARK  125  A    between atoms: _324  and  _325
REMARK  126  A    between atoms: _327  and  _329
REMARK  127  A    between atoms: _329  and  _330
REMARK  128  A    between atoms: _329  and  _332
REMARK  129  A    between atoms: _332  and  _333
REMARK  130  A    between atoms: _338  and  _339
REMARK  131  A    between atoms: _341  and  _343
REMARK  132  A    between atoms: _343  and  _344
REMARK  133  A    between atoms: _343  and  _346
REMARK  134  A    between atoms: _346  and  _347
REMARK  135  A    between atoms: _347  and  _348
REMARK  136  A    between atoms: _348  and  _349
REMARK  137  A    between atoms: _358  and  _360
REMARK  138  A    between atoms: _360  and  _361
REMARK  139  A    between atoms: _360  and  _363
REMARK  140  A    between atoms: _363  and  _364
REMARK  141  A    between atoms: _364  and  _365
REMARK  142  A    between atoms: _365  and  _366
REMARK  143  A    between atoms: _366  and  _367
REMARK  144  A    between atoms: _371  and  _373
REMARK  145  A    between atoms: _373  and  _374
REMARK  146  A    between atoms: _373  and  _376
REMARK  147  A    between atoms: _376  and  _377
REMARK  148  A    between atoms: _377  and  _378
REMARK  149  A    between atoms: _381  and  _383
REMARK  150  A    between atoms: _383  and  _384
REMARK  151  A    between atoms: _383  and  _386
REMARK  152  A    between atoms: _389  and  _391
REMARK  153  A    between atoms: _391  and  _392
REMARK  154  A    between atoms: _391  and  _394
REMARK  155  A    between atoms: _394  and  _395
REMARK                            x       y       z     vdW  Elec       q    Type
REMARK                         _______ _______ _______ _____ _____    ______ ____
ROOT
ATOM      1  O   HOH     1      10.701  -4.314  23.172  0.00  0.00    +0.000 OA
ENDROOT
TORSDOF 0
REMARK  Name = ../refined-set-2016/3arq/3arq_pocket.pdb
REMARK  155 active torsions:
REMARK  status: ('A' for Active; 'I' for Inactive)
REMARK    1  A    between atoms: _1  and  _3
REMARK    2  A    between atoms: _3  and  _4
REMARK    3  A    between atoms: _3  and  _6
REMARK    4  A    between atoms: _6  and  _7
REMARK    5  A    between atoms: _17  and  _19
REMARK    6  A    between atoms: _19  and  _20
REMARK    7  A    between atoms: _19  and  _22
REMARK    8  A    between atoms: _22  and  _23
REMARK    9  A    between atoms: _29  and  _31
REMARK   10  A    between atoms: _31  and  _32
REMARK   11  A    between atoms: _31  and  _34
REMARK   12  A    between atoms: _34  and  _35
REMARK   13  A    between atoms: _37  and  _39
REMARK   14  A    between atoms: _39  and  _40
REMARK   15  A    between atoms: _39  and  _42
REMARK   16  A    between atoms: _45  and  _47
REMARK   17  A    between atoms: _47  and  _48
REMARK   18  A    between atoms: _50  and  _52
REMARK   19  A    between atoms: _52  and  _53
REMARK   20  A    between atoms: _52  and  _55
REMARK   21  A    between atoms: _55  and  _56
REMARK   22  A    between atoms: _66  and  _68
REMARK   23  A    between atoms: _68  and  _69
REMARK   24  A    between atoms: _68  and  _71
REMARK   25  A    between atoms: _71  and  _72
REMARK   26  A    between atoms: _75  and  _77
REMARK   27  A    between atoms: _77  and  _78
REMARK   28  A    between atoms: _77  and  _80
REMARK   29  A    between atoms: _80  and  _81
REMARK   30  A    between atoms: _86  and  _87
REMARK   31  A    between atoms: _89  and  _91
REMARK   32  A    between atoms: _91  and  _92
REMARK   33  A    between atoms: _91  and  _94
REMARK   34  A    between atoms: _94  and  _95
REMARK   35  A    between atoms: _95  and  _96
REMARK   36  A    between atoms: _99  and  _101
REMARK   37  A    between atoms: _101  and  _102
REMARK   38  A    between atoms: _101  and  _104
REMARK   39  A    between atoms: _104  and  _105
REMARK   40  A    between atoms: _111  and  _113
REMARK   41  A    between atoms: _113  and  _114
REMARK   42  A    between atoms: _116  and  _118
REMARK   43  A    between atoms: _118  and  _119
REMARK   44  A    between atoms: _121  and  _123
REMARK   45  A    between atoms: _123  and  _124
REMARK   46  A    between atoms: _126  and  _128
REMARK   47  A    between atoms: _128  and  _129
REMARK   48  A    between atoms: _132  and  _134
REMARK   49  A    between atoms: _134  and  _135
REMARK   50  A    between atoms: _138  and  _140
REMARK   51  A    between atoms: _140  and  _141
REMARK   52  A    between atoms: _144  and  _146
REMARK   53  A    between atoms: _146  and  _147
REMARK   54  A    between atoms: _146  and  _149
REMARK   55  A    between atoms: _149  and  _150
REMARK   56  A    between atoms: _153  and  _155
REMARK   57  A    between atoms: _155  and  _156
REMARK   58  A    between atoms: _155  and  _158
REMARK   59  A    between atoms: _158  and  _159
REMARK   60  A    between atoms: _159  and  _160
REMARK   61  A    between atoms: _160  and  _161
REMARK   62  A    between atoms: _161  and  _162
REMARK   63  A    between atoms: _166  and  _168
REMARK   64  A    between atoms: _168  and  _169
REMARK   65  A    between atoms: _171  and  _173
REMARK   66  A    between atoms: _173  and  _174
REMARK   67  A    between atoms: _173  and  _176
REMARK   68  A    between atoms: _179  and  _181
REMARK   69  A    between atoms: _181  and  _182
REMARK   70  A    between atoms: _184  and  _186
REMARK   71  A    between atoms: _186  and  _187
REMARK   72  A    between atoms: _186  and  _189
REMARK   73  A    between atoms: _189  and  _190
REMARK   74  A    between atoms: _193  and  _195
REMARK   75  A    between atoms: _195  and  _196
REMARK   76  A    between atoms: _195  and  _198
REMARK   77  A    between atoms: _198  and  _199
REMARK   78  A    between atoms: _199  and  _200
REMARK   79  A    between atoms: _200  and  _201
REMARK   80  A    between atoms: _201  and  _202
REMARK   81  A    between atoms: _206  and  _208
REMARK   82  A    between atoms: _208  and  _209
REMARK   83  A    between atoms: _208  and  _211
REMARK   84  A    between atoms: _211  and  _212
REMARK   85  A    between atoms: _212  and  _213
REMARK   86  A    between atoms: _215  and  _217
REMARK   87  A    between atoms: _217  and  _218
REMARK   88  A    between atoms: _217  and  _220
REMARK   89  A    between atoms: _220  and  _221
REMARK   90  A    between atoms: _226  and  _227
REMARK   91  A    between atoms: _229  and  _231
REMARK   92  A    between atoms: _231  and  _232
REMARK   93  A    between atoms: _231  and  _234
REMARK   94  A    between atoms: _234  and  _235
REMARK   95  A    between atoms: _238  and  _240
REMARK   96  A    between atoms: _240  and  _241
REMARK   97  A    between atoms: _240  and  _243
REMARK   98  A    between atoms: _243  and  _244
REMARK   99  A    between atoms: _250  and  _252
REMARK  100  A    between atoms: _252  and  _253
REMARK  101  A    between atoms: _252  and  _255
REMARK  102  A    between atoms: _255  and  _256
REMARK  103  A    between atoms: _261  and  _262
REMARK  104  A    between atoms: _264  and  _266
REMARK  105  A    between atoms: _266  and  _267
REMARK  106  A    between atoms: _269  and  _271
REMARK  107  A    between atoms: _271  and  _272
REMARK  108  A    between atoms: _274  and  _276
REMARK  109  A    between atoms: _276  and  _277
REMARK  110  A    between atoms: _276  and  _279
REMARK  111  A    between atoms: _279  and  _280
REMARK  112  A    between atoms: _290  and  _292
REMARK  113  A    between atoms: _292  and  _293
REMARK  114  A    between atoms: _292  and  _295
REMARK  115  A    between atoms: _295  and  _296
REMARK  116  A    between atoms: _301  and  _303
REMARK  117  A    between atoms: _303  and  _304
REMARK  118  A    between atoms: _303  and  _306
REMARK  119  A    between atoms: _306  and  _307
REMARK  120  A    between atoms: _307  and  _308
REMARK  121  A    between atoms: _313  and  _315
REMARK  122  A    between atoms: _315  and  _316
REMARK  123  A    between atoms: _315  and  _318
REMARK  124  A    between atoms: _318  and  _319
REMARK  125  A    between atoms: _324  and  _325
REMARK  126  A    between atoms: _327  and  _329
REMARK  127  A    between atoms: _329  and  _330
REMARK  128  A    between atoms: _329  and  _332
REMARK  129  A    between atoms: _332  and  _333
REMARK  130  A    between atoms: _338  and  _339
REMARK  131  A    between atoms: _341  and  _343
REMARK  132  A    between atoms: _343  and  _344
REMARK  133  A    between atoms: _343  and  _346
REMARK  134  A    between atoms: _346  and  _347
REMARK  135  A    between atoms: _347  and  _348
REMARK  136  A    between atoms: _348  and  _349
REMARK  137  A    between atoms: _358  and  _360
REMARK  138  A    between atoms: _360  and  _361
REMARK  139  A    between atoms: _360  and  _363
REMARK  140  A    between atoms: _363  and  _364
REMARK  141  A    between atoms: _364  and  _365
REMARK  142  A    between atoms: _365  and  _366
REMARK  143  A    between atoms: _366  and  _367
REMARK  144  A    between atoms: _371  and  _373
REMARK  145  A    between atoms: _373  and  _374
REMARK  146  A    between atoms: _373  and  _376
REMARK  147  A    between atoms: _376  and  _377
REMARK  148  A    between atoms: _377  and  _378
REMARK  149  A    between atoms: _381  and  _383
REMARK  150  A    between atoms: _383  and  _384
REMARK  151  A    between atoms: _383  and  _386
REMARK  152  A    between atoms: _389  and  _391
REMARK  153  A    between atoms: _391  and  _392
REMARK  154  A    between atoms: _391  and  _394
REMARK  155  A    between atoms: _394  and  _395
REMARK                            x       y       z     vdW  Elec       q    Type
REMARK                         _______ _______ _______ _____ _____    ______ ____
ROOT
ATOM      1  O   HOH     1      22.889  -5.891  25.081  0.00  0.00    +0.000 OA
ENDROOT
TORSDOF 0
REMARK  Name = ../refined-set-2016/3arq/3arq_pocket.pdb
REMARK  155 active torsions:
REMARK  status: ('A' for Active; 'I' for Inactive)
REMARK    1  A    between atoms: _1  and  _3
REMARK    2  A    between atoms: _3  and  _4
REMARK    3  A    between atoms: _3  and  _6
REMARK    4  A    between atoms: _6  and  _7
REMARK    5  A    between atoms: _17  and  _19
REMARK    6  A    between atoms: _19  and  _20
REMARK    7  A    between atoms: _19  and  _22
REMARK    8  A    between atoms: _22  and  _23
REMARK    9  A    between atoms: _29  and  _31
REMARK   10  A    between atoms: _31  and  _32
REMARK   11  A    between atoms: _31  and  _34
REMARK   12  A    between atoms: _34  and  _35
REMARK   13  A    between atoms: _37  and  _39
REMARK   14  A    between atoms: _39  and  _40
REMARK   15  A    between atoms: _39  and  _42
REMARK   16  A    between atoms: _45  and  _47
REMARK   17  A    between atoms: _47  and  _48
REMARK   18  A    between atoms: _50  and  _52
REMARK   19  A    between atoms: _52  and  _53
REMARK   20  A    between atoms: _52  and  _55
REMARK   21  A    between atoms: _55  and  _56
REMARK   22  A    between atoms: _66  and  _68
REMARK   23  A    between atoms: _68  and  _69
REMARK   24  A    between atoms: _68  and  _71
REMARK   25  A    between atoms: _71  and  _72
REMARK   26  A    between atoms: _75  and  _77
REMARK   27  A    between atoms: _77  and  _78
REMARK   28  A    between atoms: _77  and  _80
REMARK   29  A    between atoms: _80  and  _81
REMARK   30  A    between atoms: _86  and  _87
REMARK   31  A    between atoms: _89  and  _91
REMARK   32  A    between atoms: _91  and  _92
REMARK   33  A    between atoms: _91  and  _94
REMARK   34  A    between atoms: _94  and  _95
REMARK   35  A    between atoms: _95  and  _96
REMARK   36  A    between atoms: _99  and  _101
REMARK   37  A    between atoms: _101  and  _102
REMARK   38  A    between atoms: _101  and  _104
REMARK   39  A    between atoms: _104  and  _105
REMARK   40  A    between atoms: _111  and  _113
REMARK   41  A    between atoms: _113  and  _114
REMARK   42  A    between atoms: _116  and  _118
REMARK   43  A    between atoms: _118  and  _119
REMARK   44  A    between atoms: _121  and  _123
REMARK   45  A    between atoms: _123  and  _124
REMARK   46  A    between atoms: _126  and  _128
REMARK   47  A    between atoms: _128  and  _129
REMARK   48  A    between atoms: _132  and  _134
REMARK   49  A    between atoms: _134  and  _135
REMARK   50  A    between atoms: _138  and  _140
REMARK   51  A    between atoms: _140  and  _141
REMARK   52  A    between atoms: _144  and  _146
REMARK   53  A    between atoms: _146  and  _147
REMARK   54  A    between atoms: _146  and  _149
REMARK   55  A    between atoms: _149  and  _150
REMARK   56  A    between atoms: _153  and  _155
REMARK   57  A    between atoms: _155  and  _156
REMARK   58  A    between atoms: _155  and  _158
REMARK   59  A    between atoms: _158  and  _159
REMARK   60  A    between atoms: _159  and  _160
REMARK   61  A    between atoms: _160  and  _161
REMARK   62  A    between atoms: _161  and  _162
REMARK   63  A    between atoms: _166  and  _168
REMARK   64  A    between atoms: _168  and  _169
REMARK   65  A    between atoms: _171  and  _173
REMARK   66  A    between atoms: _173  and  _174
REMARK   67  A    between atoms: _173  and  _176
REMARK   68  A    between atoms: _179  and  _181
REMARK   69  A    between atoms: _181  and  _182
REMARK   70  A    between atoms: _184  and  _186
REMARK   71  A    between atoms: _186  and  _187
REMARK   72  A    between atoms: _186  and  _189
REMARK   73  A    between atoms: _189  and  _190
REMARK   74  A    between atoms: _193  and  _195
REMARK   75  A    between atoms: _195  and  _196
REMARK   76  A    between atoms: _195  and  _198
REMARK   77  A    between atoms: _198  and  _199
REMARK   78  A    between atoms: _199  and  _200
REMARK   79  A    between atoms: _200  and  _201
REMARK   80  A    between atoms: _201  and  _202
REMARK   81  A    between atoms: _206  and  _208
REMARK   82  A    between atoms: _208  and  _209
REMARK   83  A    between atoms: _208  and  _211
REMARK   84  A    between atoms: _211  and  _212
REMARK   85  A    between atoms: _212  and  _213
REMARK   86  A    between atoms: _215  and  _217
REMARK   87  A    between atoms: _217  and  _218
REMARK   88  A    between atoms: _217  and  _220
REMARK   89  A    between atoms: _220  and  _221
REMARK   90  A    between atoms: _226  and  _227
REMARK   91  A    between atoms: _229  and  _231
REMARK   92  A    between atoms: _231  and  _232
REMARK   93  A    between atoms: _231  and  _234
REMARK   94  A    between atoms: _234  and  _235
REMARK   95  A    between atoms: _238  and  _240
REMARK   96  A    between atoms: _240  and  _241
REMARK   97  A    between atoms: _240  and  _243
REMARK   98  A    between atoms: _243  and  _244
REMARK   99  A    between atoms: _250  and  _252
REMARK  100  A    between atoms: _252  and  _253
REMARK  101  A    between atoms: _252  and  _255
REMARK  102  A    between atoms: _255  and  _256
REMARK  103  A    between atoms: _261  and  _262
REMARK  104  A    between atoms: _264  and  _266
REMARK  105  A    between atoms: _266  and  _267
REMARK  106  A    between atoms: _269  and  _271
REMARK  107  A    between atoms: _271  and  _272
REMARK  108  A    between atoms: _274  and  _276
REMARK  109  A    between atoms: _276  and  _277
REMARK  110  A    between atoms: _276  and  _279
REMARK  111  A    between atoms: _279  and  _280
REMARK  112  A    between atoms: _290  and  _292
REMARK  113  A    between atoms: _292  and  _293
REMARK  114  A    between atoms: _292  and  _295
REMARK  115  A    between atoms: _295  and  _296
REMARK  116  A    between atoms: _301  and  _303
REMARK  117  A    between atoms: _303  and  _304
REMARK  118  A    between atoms: _303  and  _306
REMARK  119  A    between atoms: _306  and  _307
REMARK  120  A    between atoms: _307  and  _308
REMARK  121  A    between atoms: _313  and  _315
REMARK  122  A    between atoms: _315  and  _316
REMARK  123  A    between atoms: _315  and  _318
REMARK  124  A    between atoms: _318  and  _319
REMARK  125  A    between atoms: _324  and  _325
REMARK  126  A    between atoms: _327  and  _329
REMARK  127  A    between atoms: _329  and  _330
REMARK  128  A    between atoms: _329  and  _332
REMARK  129  A    between atoms: _332  and  _333
REMARK  130  A    between atoms: _338  and  _339
REMARK  131  A    between atoms: _341  and  _343
REMARK  132  A    between atoms: _343  and  _344
REMARK  133  A    between atoms: _343  and  _346
REMARK  134  A    between atoms: _346  and  _347
REMARK  135  A    between atoms: _347  and  _348
REMARK  136  A    between atoms: _348  and  _349
REMARK  137  A    between atoms: _358  and  _360
REMARK  138  A    between atoms: _360  and  _361
REMARK  139  A    between atoms: _360  and  _363
REMARK  140  A    between atoms: _363  and  _364
REMARK  141  A    between atoms: _364  and  _365
REMARK  142  A    between atoms: _365  and  _366
REMARK  143  A    between atoms: _366  and  _367
REMARK  144  A    between atoms: _371  and  _373
REMARK  145  A    between atoms: _373  and  _374
REMARK  146  A    between atoms: _373  and  _376
REMARK  147  A    between atoms: _376  and  _377
REMARK  148  A    between atoms: _377  and  _378
REMARK  149  A    between atoms: _381  and  _383
REMARK  150  A    between atoms: _383  and  _384
REMARK  151  A    between atoms: _383  and  _386
REMARK  152  A    between atoms: _389  and  _391
REMARK  153  A    between atoms: _391  and  _392
REMARK  154  A    between atoms: _391  and  _394
REMARK  155  A    between atoms: _394  and  _395
REMARK                            x       y       z     vdW  Elec       q    Type
REMARK                         _______ _______ _______ _____ _____    ______ ____
ROOT
ATOM      1  O   HOH     1      19.121 -12.453  30.075  0.00  0.00    +0.000 OA
ENDROOT
TORSDOF 0
