REMARK  Name = ../refined-set-2016/4s1g/4s1g_pocket.pdb
REMARK  198 active torsions:
REMARK  status: ('A' for Active; 'I' for Inactive)
REMARK    1  A    between atoms: _1  and  _3
REMARK    2  A    between atoms: _3  and  _4
REMARK    3  A    between atoms: _3  and  _6
REMARK    4  A    between atoms: _6  and  _7
REMARK    5  A    between atoms: _12  and  _13
REMARK    6  A    between atoms: _15  and  _17
REMARK    7  A    between atoms: _17  and  _18
REMARK    8  A    between atoms: _17  and  _20
REMARK    9  A    between atoms: _20  and  _21
REMARK   10  A    between atoms: _24  and  _26
REMARK   11  A    between atoms: _26  and  _27
REMARK   12  A    between atoms: _26  and  _29
REMARK   13  A    between atoms: _29  and  _30
REMARK   14  A    between atoms: _30  and  _31
REMARK   15  A    between atoms: _36  and  _38
REMARK   16  A    between atoms: _38  and  _39
REMARK   17  A    between atoms: _38  and  _41
REMARK   18  A    between atoms: _41  and  _42
REMARK   19  A    between atoms: _47  and  _48
REMARK   20  A    between atoms: _50  and  _52
REMARK   21  A    between atoms: _52  and  _53
REMARK   22  A    between atoms: _52  and  _55
REMARK   23  A    between atoms: _55  and  _56
REMARK   24  A    between atoms: _61  and  _62
REMARK   25  A    between atoms: _64  and  _66
REMARK   26  A    between atoms: _66  and  _67
REMARK   27  A    between atoms: _66  and  _69
REMARK   28  A    between atoms: _72  and  _74
REMARK   29  A    between atoms: _74  and  _75
REMARK   30  A    between atoms: _74  and  _77
REMARK   31  A    between atoms: _77  and  _78
REMARK   32  A    between atoms: _84  and  _86
REMARK   33  A    between atoms: _86  and  _87
REMARK   34  A    between atoms: _86  and  _89
REMARK   35  A    between atoms: _89  and  _90
REMARK   36  A    between atoms: _93  and  _95
REMARK   37  A    between atoms: _95  and  _96
REMARK   38  A    between atoms: _95  and  _98
REMARK   39  A    between atoms: _98  and  _99
REMARK   40  A    between atoms: _102  and  _104
REMARK   41  A    between atoms: _104  and  _105
REMARK   42  A    between atoms: _107  and  _109
REMARK   43  A    between atoms: _109  and  _110
REMARK   44  A    between atoms: _109  and  _112
REMARK   45  A    between atoms: _112  and  _113
REMARK   46  A    between atoms: _115  and  _117
REMARK   47  A    between atoms: _117  and  _118
REMARK   48  A    between atoms: _117  and  _120
REMARK   49  A    between atoms: _120  and  _121
REMARK   50  A    between atoms: _123  and  _125
REMARK   51  A    between atoms: _125  and  _126
REMARK   52  A    between atoms: _125  and  _128
REMARK   53  A    between atoms: _128  and  _129
REMARK   54  A    between atoms: _134  and  _136
REMARK   55  A    between atoms: _136  and  _137
REMARK   56  A    between atoms: _136  and  _139
REMARK   57  A    between atoms: _139  and  _140
REMARK   58  A    between atoms: _150  and  _152
REMARK   59  A    between atoms: _152  and  _153
REMARK   60  A    between atoms: _152  and  _155
REMARK   61  A    between atoms: _155  and  _156
REMARK   62  A    between atoms: _159  and  _161
REMARK   63  A    between atoms: _161  and  _162
REMARK   64  A    between atoms: _161  and  _164
REMARK   65  A    between atoms: _164  and  _165
REMARK   66  A    between atoms: _165  and  _166
REMARK   67  A    between atoms: _166  and  _167
REMARK   68  A    between atoms: _176  and  _178
REMARK   69  A    between atoms: _178  and  _179
REMARK   70  A    between atoms: _178  and  _181
REMARK   71  A    between atoms: _181  and  _182
REMARK   72  A    between atoms: _187  and  _188
REMARK   73  A    between atoms: _190  and  _192
REMARK   74  A    between atoms: _192  and  _193
REMARK   75  A    between atoms: _192  and  _195
REMARK   76  A    between atoms: _195  and  _196
REMARK   77  A    between atoms: _198  and  _200
REMARK   78  A    between atoms: _200  and  _201
REMARK   79  A    between atoms: _200  and  _203
REMARK   80  A    between atoms: _203  and  _204
REMARK   81  A    between atoms: _207  and  _209
REMARK   82  A    between atoms: _209  and  _210
REMARK   83  A    between atoms: _212  and  _214
REMARK   84  A    between atoms: _214  and  _215
REMARK   85  A    between atoms: _214  and  _217
REMARK   86  A    between atoms: _221  and  _222
REMARK   87  A    between atoms: _227  and  _229
REMARK   88  A    between atoms: _229  and  _230
REMARK   89  A    between atoms: _233  and  _235
REMARK   90  A    between atoms: _235  and  _236
REMARK   91  A    between atoms: _235  and  _238
REMARK   92  A    between atoms: _238  and  _239
REMARK   93  A    between atoms: _243  and  _244
REMARK   94  A    between atoms: _249  and  _251
REMARK   95  A    between atoms: _251  and  _252
REMARK   96  A    between atoms: _251  and  _254
REMARK   97  A    between atoms: _254  and  _255
REMARK   98  A    between atoms: _261  and  _263
REMARK   99  A    between atoms: _263  and  _264
REMARK  100  A    between atoms: _263  and  _266
REMARK  101  A    between atoms: _266  and  _267
REMARK  102  A    between atoms: _267  and  _268
REMARK  103  A    between atoms: _270  and  _272
REMARK  104  A    between atoms: _272  and  _273
REMARK  105  A    between atoms: _272  and  _275
REMARK  106  A    between atoms: _275  and  _276
REMARK  107  A    between atoms: _279  and  _281
REMARK  108  A    between atoms: _281  and  _282
REMARK  109  A    between atoms: _285  and  _287
REMARK  110  A    between atoms: _287  and  _288
REMARK  111  A    between atoms: _287  and  _290
REMARK  112  A    between atoms: _290  and  _291
REMARK  113  A    between atoms: _291  and  _292
REMARK  114  A    between atoms: _295  and  _297
REMARK  115  A    between atoms: _297  and  _298
REMARK  116  A    between atoms: _297  and  _300
REMARK  117  A    between atoms: _300  and  _301
REMARK  118  A    between atoms: _307  and  _309
REMARK  119  A    between atoms: _309  and  _310
REMARK  120  A    between atoms: _312  and  _314
REMARK  121  A    between atoms: _314  and  _315
REMARK  122  A    between atoms: _314  and  _317
REMARK  123  A    between atoms: _320  and  _322
REMARK  124  A    between atoms: _322  and  _323
REMARK  125  A    between atoms: _322  and  _325
REMARK  126  A    between atoms: _328  and  _330
REMARK  127  A    between atoms: _330  and  _331
REMARK  128  A    between atoms: _333  and  _335
REMARK  129  A    between atoms: _335  and  _336
REMARK  130  A    between atoms: _335  and  _338
REMARK  131  A    between atoms: _338  and  _339
REMARK  132  A    between atoms: _339  and  _340
REMARK  133  A    between atoms: _342  and  _344
REMARK  134  A    between atoms: _344  and  _345
REMARK  135  A    between atoms: _344  and  _347
REMARK  136  A    between atoms: _347  and  _348
REMARK  137  A    between atoms: _353  and  _354
REMARK  138  A    between atoms: _356  and  _358
REMARK  139  A    between atoms: _358  and  _359
REMARK  140  A    between atoms: _358  and  _361
REMARK  141  A    between atoms: _361  and  _362
REMARK  142  A    between atoms: _365  and  _367
REMARK  143  A    between atoms: _367  and  _368
REMARK  144  A    between atoms: _367  and  _370
REMARK  145  A    between atoms: _373  and  _375
REMARK  146  A    between atoms: _375  and  _376
REMARK  147  A    between atoms: _375  and  _378
REMARK  148  A    between atoms: _378  and  _379
REMARK  149  A    between atoms: _382  and  _384
REMARK  150  A    between atoms: _384  and  _385
REMARK  151  A    between atoms: _384  and  _387
REMARK  152  A    between atoms: _387  and  _388
REMARK  153  A    between atoms: _391  and  _393
REMARK  154  A    between atoms: _393  and  _394
REMARK  155  A    between atoms: _396  and  _398
REMARK  156  A    between atoms: _398  and  _399
REMARK  157  A    between atoms: _402  and  _404
REMARK  158  A    between atoms: _404  and  _405
REMARK  159  A    between atoms: _404  and  _407
REMARK  160  A    between atoms: _407  and  _408
REMARK  161  A    between atoms: _410  and  _412
REMARK  162  A    between atoms: _412  and  _413
REMARK  163  A    between atoms: _412  and  _415
REMARK  164  A    between atoms: _415  and  _416
REMARK  165  A    between atoms: _421  and  _422
REMARK  166  A    between atoms: _424  and  _426
REMARK  167  A    between atoms: _426  and  _427
REMARK  168  A    between atoms: _426  and  _429
REMARK  169  A    between atoms: _429  and  _430
REMARK  170  A    between atoms: _433  and  _435
REMARK  171  A    between atoms: _435  and  _436
REMARK  172  A    between atoms: _435  and  _438
REMARK  173  A    between atoms: _438  and  _439
REMARK  174  A    between atoms: _441  and  _443
REMARK  175  A    between atoms: _443  and  _444
REMARK  176  A    between atoms: _446  and  _448
REMARK  177  A    between atoms: _448  and  _449
REMARK  178  A    between atoms: _448  and  _451
REMARK  179  A    between atoms: _451  and  _452
REMARK  180  A    between atoms: _457  and  _459
REMARK  181  A    between atoms: _459  and  _460
REMARK  182  A    between atoms: _463  and  _465
REMARK  183  A    between atoms: _465  and  _466
REMARK  184  A    between atoms: _465  and  _468
REMARK  185  A    between atoms: _468  and  _469
REMARK  186  A    between atoms: _469  and  _470
REMARK  187  A    between atoms: _472  and  _474
REMARK  188  A    between atoms: _474  and  _475
REMARK  189  A    between atoms: _474  and  _477
REMARK  190  A    between atoms: _477  and  _478
REMARK  191  A    between atoms: _481  and  _483
REMARK  192  A    between atoms: _483  and  _484
REMARK  193  A    between atoms: _483  and  _486
REMARK  194  A    between atoms: _486  and  _487
REMARK  195  A    between atoms: _490  and  _492
REMARK  196  A    between atoms: _492  and  _493
REMARK  197  A    between atoms: _496  and  _498
REMARK  198  A    between atoms: _498  and  _499
REMARK                            x       y       z     vdW  Elec       q    Type
REMARK                         _______ _______ _______ _____ _____    ______ ____
ROOT
ATOM      1  CG  TYR A   1      38.601  58.485  57.140  0.00  0.00    -0.020 A 
ATOM      2  CD2 TYR A   1      39.158  57.913  58.282  0.00  0.00    -0.001 A 
ATOM      3  CE2 TYR A   1      40.275  57.072  58.201  0.00  0.00    +0.036 A 
ATOM      4  CZ  TYR A   1      40.848  56.802  56.963  0.00  0.00    +0.134 A 
ATOM      5  CE1 TYR A   1      40.317  57.364  55.819  0.00  0.00    +0.036 A 
ATOM      6  CD1 TYR A   1      39.203  58.208  55.912  0.00  0.00    -0.001 A 
ENDROOT
BRANCH   4   7
ATOM      7  OH  TYR A   1      41.944  55.979  56.845  0.00  0.00    -0.506 OA
ATOM      8  HH  TYR A   1      42.209  55.654  57.742  0.00  0.00    +0.292 HD
ENDBRANCH   4   7
BRANCH   1   9
ATOM      9  CB  TYR A   1      37.384  59.386  57.229  0.00  0.00    +0.051 C 
BRANCH   9  10
ATOM     10  CA  TYR A   1      37.696  60.752  57.836  0.00  0.00    +0.137 C 
BRANCH  10  11
ATOM     11  N   TYR A   1      36.548  61.643  57.768  0.00  0.00    -0.239 NA
ATOM     12  H   TYR A   1      35.989  61.676  56.892  0.00  0.00    +0.142 HD
ENDBRANCH  10  11
BRANCH  10  13
ATOM     13  C   TYR A   1      38.892  61.414  57.124  0.00  0.00    +0.224 C 
ATOM     14  O   TYR A   1      38.877  61.548  55.894  0.00  0.00    -0.287 OA
ENDBRANCH  10  13
ENDBRANCH   9  10
ENDBRANCH   1   9
TORSDOF 5
REMARK  Name = ../refined-set-2016/4s1g/4s1g_pocket.pdb
REMARK  198 active torsions:
REMARK  status: ('A' for Active; 'I' for Inactive)
REMARK    1  A    between atoms: _1  and  _3
REMARK    2  A    between atoms: _3  and  _4
REMARK    3  A    between atoms: _3  and  _6
REMARK    4  A    between atoms: _6  and  _7
REMARK    5  A    between atoms: _12  and  _13
REMARK    6  A    between atoms: _15  and  _17
REMARK    7  A    between atoms: _17  and  _18
REMARK    8  A    between atoms: _17  and  _20
REMARK    9  A    between atoms: _20  and  _21
REMARK   10  A    between atoms: _24  and  _26
REMARK   11  A    between atoms: _26  and  _27
REMARK   12  A    between atoms: _26  and  _29
REMARK   13  A    between atoms: _29  and  _30
REMARK   14  A    between atoms: _30  and  _31
REMARK   15  A    between atoms: _36  and  _38
REMARK   16  A    between atoms: _38  and  _39
REMARK   17  A    between atoms: _38  and  _41
REMARK   18  A    between atoms: _41  and  _42
REMARK   19  A    between atoms: _47  and  _48
REMARK   20  A    between atoms: _50  and  _52
REMARK   21  A    between atoms: _52  and  _53
REMARK   22  A    between atoms: _52  and  _55
REMARK   23  A    between atoms: _55  and  _56
REMARK   24  A    between atoms: _61  and  _62
REMARK   25  A    between atoms: _64  and  _66
REMARK   26  A    between atoms: _66  and  _67
REMARK   27  A    between atoms: _66  and  _69
REMARK   28  A    between atoms: _72  and  _74
REMARK   29  A    between atoms: _74  and  _75
REMARK   30  A    between atoms: _74  and  _77
REMARK   31  A    between atoms: _77  and  _78
REMARK   32  A    between atoms: _84  and  _86
REMARK   33  A    between atoms: _86  and  _87
REMARK   34  A    between atoms: _86  and  _89
REMARK   35  A    between atoms: _89  and  _90
REMARK   36  A    between atoms: _93  and  _95
REMARK   37  A    between atoms: _95  and  _96
REMARK   38  A    between atoms: _95  and  _98
REMARK   39  A    between atoms: _98  and  _99
REMARK   40  A    between atoms: _102  and  _104
REMARK   41  A    between atoms: _104  and  _105
REMARK   42  A    between atoms: _107  and  _109
REMARK   43  A    between atoms: _109  and  _110
REMARK   44  A    between atoms: _109  and  _112
REMARK   45  A    between atoms: _112  and  _113
REMARK   46  A    between atoms: _115  and  _117
REMARK   47  A    between atoms: _117  and  _118
REMARK   48  A    between atoms: _117  and  _120
REMARK   49  A    between atoms: _120  and  _121
REMARK   50  A    between atoms: _123  and  _125
REMARK   51  A    between atoms: _125  and  _126
REMARK   52  A    between atoms: _125  and  _128
REMARK   53  A    between atoms: _128  and  _129
REMARK   54  A    between atoms: _134  and  _136
REMARK   55  A    between atoms: _136  and  _137
REMARK   56  A    between atoms: _136  and  _139
REMARK   57  A    between atoms: _139  and  _140
REMARK   58  A    between atoms: _150  and  _152
REMARK   59  A    between atoms: _152  and  _153
REMARK   60  A    between atoms: _152  and  _155
REMARK   61  A    between atoms: _155  and  _156
REMARK   62  A    between atoms: _159  and  _161
REMARK   63  A    between atoms: _161  and  _162
REMARK   64  A    between atoms: _161  and  _164
REMARK   65  A    between atoms: _164  and  _165
REMARK   66  A    between atoms: _165  and  _166
REMARK   67  A    between atoms: _166  and  _167
REMARK   68  A    between atoms: _176  and  _178
REMARK   69  A    between atoms: _178  and  _179
REMARK   70  A    between atoms: _178  and  _181
REMARK   71  A    between atoms: _181  and  _182
REMARK   72  A    between atoms: _187  and  _188
REMARK   73  A    between atoms: _190  and  _192
REMARK   74  A    between atoms: _192  and  _193
REMARK   75  A    between atoms: _192  and  _195
REMARK   76  A    between atoms: _195  and  _196
REMARK   77  A    between atoms: _198  and  _200
REMARK   78  A    between atoms: _200  and  _201
REMARK   79  A    between atoms: _200  and  _203
REMARK   80  A    between atoms: _203  and  _204
REMARK   81  A    between atoms: _207  and  _209
REMARK   82  A    between atoms: _209  and  _210
REMARK   83  A    between atoms: _212  and  _214
REMARK   84  A    between atoms: _214  and  _215
REMARK   85  A    between atoms: _214  and  _217
REMARK   86  A    between atoms: _221  and  _222
REMARK   87  A    between atoms: _227  and  _229
REMARK   88  A    between atoms: _229  and  _230
REMARK   89  A    between atoms: _233  and  _235
REMARK   90  A    between atoms: _235  and  _236
REMARK   91  A    between atoms: _235  and  _238
REMARK   92  A    between atoms: _238  and  _239
REMARK   93  A    between atoms: _243  and  _244
REMARK   94  A    between atoms: _249  and  _251
REMARK   95  A    between atoms: _251  and  _252
REMARK   96  A    between atoms: _251  and  _254
REMARK   97  A    between atoms: _254  and  _255
REMARK   98  A    between atoms: _261  and  _263
REMARK   99  A    between atoms: _263  and  _264
REMARK  100  A    between atoms: _263  and  _266
REMARK  101  A    between atoms: _266  and  _267
REMARK  102  A    between atoms: _267  and  _268
REMARK  103  A    between atoms: _270  and  _272
REMARK  104  A    between atoms: _272  and  _273
REMARK  105  A    between atoms: _272  and  _275
REMARK  106  A    between atoms: _275  and  _276
REMARK  107  A    between atoms: _279  and  _281
REMARK  108  A    between atoms: _281  and  _282
REMARK  109  A    between atoms: _285  and  _287
REMARK  110  A    between atoms: _287  and  _288
REMARK  111  A    between atoms: _287  and  _290
REMARK  112  A    between atoms: _290  and  _291
REMARK  113  A    between atoms: _291  and  _292
REMARK  114  A    between atoms: _295  and  _297
REMARK  115  A    between atoms: _297  and  _298
REMARK  116  A    between atoms: _297  and  _300
REMARK  117  A    between atoms: _300  and  _301
REMARK  118  A    between atoms: _307  and  _309
REMARK  119  A    between atoms: _309  and  _310
REMARK  120  A    between atoms: _312  and  _314
REMARK  121  A    between atoms: _314  and  _315
REMARK  122  A    between atoms: _314  and  _317
REMARK  123  A    between atoms: _320  and  _322
REMARK  124  A    between atoms: _322  and  _323
REMARK  125  A    between atoms: _322  and  _325
REMARK  126  A    between atoms: _328  and  _330
REMARK  127  A    between atoms: _330  and  _331
REMARK  128  A    between atoms: _333  and  _335
REMARK  129  A    between atoms: _335  and  _336
REMARK  130  A    between atoms: _335  and  _338
REMARK  131  A    between atoms: _338  and  _339
REMARK  132  A    between atoms: _339  and  _340
REMARK  133  A    between atoms: _342  and  _344
REMARK  134  A    between atoms: _344  and  _345
REMARK  135  A    between atoms: _344  and  _347
REMARK  136  A    between atoms: _347  and  _348
REMARK  137  A    between atoms: _353  and  _354
REMARK  138  A    between atoms: _356  and  _358
REMARK  139  A    between atoms: _358  and  _359
REMARK  140  A    between atoms: _358  and  _361
REMARK  141  A    between atoms: _361  and  _362
REMARK  142  A    between atoms: _365  and  _367
REMARK  143  A    between atoms: _367  and  _368
REMARK  144  A    between atoms: _367  and  _370
REMARK  145  A    between atoms: _373  and  _375
REMARK  146  A    between atoms: _375  and  _376
REMARK  147  A    between atoms: _375  and  _378
REMARK  148  A    between atoms: _378  and  _379
REMARK  149  A    between atoms: _382  and  _384
REMARK  150  A    between atoms: _384  and  _385
REMARK  151  A    between atoms: _384  and  _387
REMARK  152  A    between atoms: _387  and  _388
REMARK  153  A    between atoms: _391  and  _393
REMARK  154  A    between atoms: _393  and  _394
REMARK  155  A    between atoms: _396  and  _398
REMARK  156  A    between atoms: _398  and  _399
REMARK  157  A    between atoms: _402  and  _404
REMARK  158  A    between atoms: _404  and  _405
REMARK  159  A    between atoms: _404  and  _407
REMARK  160  A    between atoms: _407  and  _408
REMARK  161  A    between atoms: _410  and  _412
REMARK  162  A    between atoms: _412  and  _413
REMARK  163  A    between atoms: _412  and  _415
REMARK  164  A    between atoms: _415  and  _416
REMARK  165  A    between atoms: _421  and  _422
REMARK  166  A    between atoms: _424  and  _426
REMARK  167  A    between atoms: _426  and  _427
REMARK  168  A    between atoms: _426  and  _429
REMARK  169  A    between atoms: _429  and  _430
REMARK  170  A    between atoms: _433  and  _435
REMARK  171  A    between atoms: _435  and  _436
REMARK  172  A    between atoms: _435  and  _438
REMARK  173  A    between atoms: _438  and  _439
REMARK  174  A    between atoms: _441  and  _443
REMARK  175  A    between atoms: _443  and  _444
REMARK  176  A    between atoms: _446  and  _448
REMARK  177  A    between atoms: _448  and  _449
REMARK  178  A    between atoms: _448  and  _451
REMARK  179  A    between atoms: _451  and  _452
REMARK  180  A    between atoms: _457  and  _459
REMARK  181  A    between atoms: _459  and  _460
REMARK  182  A    between atoms: _463  and  _465
REMARK  183  A    between atoms: _465  and  _466
REMARK  184  A    between atoms: _465  and  _468
REMARK  185  A    between atoms: _468  and  _469
REMARK  186  A    between atoms: _469  and  _470
REMARK  187  A    between atoms: _472  and  _474
REMARK  188  A    between atoms: _474  and  _475
REMARK  189  A    between atoms: _474  and  _477
REMARK  190  A    between atoms: _477  and  _478
REMARK  191  A    between atoms: _481  and  _483
REMARK  192  A    between atoms: _483  and  _484
REMARK  193  A    between atoms: _483  and  _486
REMARK  194  A    between atoms: _486  and  _487
REMARK  195  A    between atoms: _490  and  _492
REMARK  196  A    between atoms: _492  and  _493
REMARK  197  A    between atoms: _496  and  _498
REMARK  198  A    between atoms: _498  and  _499
REMARK                            x       y       z     vdW  Elec       q    Type
REMARK                         _______ _______ _______ _____ _____    ______ ____
ROOT
ATOM      1  CA  TYR A   3      32.772  62.726  54.459  0.00  0.00    +0.153 C 
ENDROOT
BRANCH   1   4
ATOM      2  C   GLN A   2      35.022  61.754  54.122  0.00  0.00    +0.241 C 
ATOM      3  O   GLN A   2      35.330  61.844  55.308  0.00  0.00    -0.273 OA
ATOM      4  N   TYR A   3      33.846  62.178  53.628  0.00  0.00    -0.297 N 
ATOM      5  H   TYR A   3      33.691  62.113  52.602  0.00  0.00    +0.150 HD
BRANCH   2   6
ATOM      6  CA  GLN A   2      36.031  61.214  53.127  0.00  0.00    +0.149 C 
BRANCH   6   8
ATOM      7  C   THR A   1      37.956  62.425  52.228  0.00  0.00    +0.241 C 
ATOM      8  N   GLN A   2      37.304  61.933  53.299  0.00  0.00    -0.297 N 
ATOM      9  H   GLN A   2      37.702  62.062  54.251  0.00  0.00    +0.150 HD
ATOM     10  O   THR A   1      37.560  62.240  51.083  0.00  0.00    -0.274 OA
BRANCH   7  11
ATOM     11  CA  THR A   1      39.290  63.124  52.443  0.00  0.00    +0.172 C 
BRANCH  11  12
ATOM     12  N   THR A   1      39.436  63.654  53.798  0.00  0.00    -0.236 NA
ATOM     13  H   THR A   1      39.440  62.992  54.600  0.00  0.00    +0.142 HD
ENDBRANCH  11  12
BRANCH  11  14
ATOM     14  CB  THR A   1      40.466  62.178  52.074  0.00  0.00    +0.135 C 
ATOM     15  CG2 THR A   1      41.798  62.865  52.038  0.00  0.00    +0.034 C 
BRANCH  14  16
ATOM     16  OG1 THR A   1      40.508  61.087  52.998  0.00  0.00    -0.383 OA
ATOM     17  HG1 THR A   1      41.258  60.485  52.762  0.00  0.00    +0.210 HD
ENDBRANCH  14  16
ENDBRANCH  11  14
ENDBRANCH   7  11
ENDBRANCH   6   8
BRANCH   6  18
ATOM     18  CB  GLN A   2      36.206  59.693  53.309  0.00  0.00    +0.039 C 
BRANCH  18  19
ATOM     19  CG  GLN A   2      37.224  59.048  52.328  0.00  0.00    +0.087 C 
BRANCH  19  20
ATOM     20  CD  GLN A   2      37.540  57.611  52.650  0.00  0.00    +0.219 C 
ATOM     21  OE1 GLN A   2      36.691  56.859  53.133  0.00  0.00    -0.275 OA
ATOM     22  NE2 GLN A   2      38.775  57.196  52.399  0.00  0.00    -0.329 N 
ATOM     23 HE21 GLN A   2      39.047  56.215  52.610  0.00  0.00    +0.145 HD
ATOM     24 HE22 GLN A   2      39.471  57.852  51.991  0.00  0.00    +0.145 HD
ENDBRANCH  19  20
ENDBRANCH  18  19
ENDBRANCH   6  18
ENDBRANCH   2   6
ENDBRANCH   1   4
BRANCH   1  25
ATOM     25  C   TYR A   3      31.563  61.872  54.192  0.00  0.00    +0.241 C 
ATOM     26  N   TYR A   4      31.076  61.192  55.230  0.00  0.00    -0.298 N 
ATOM     27  H   TYR A   4      31.478  61.346  56.177  0.00  0.00    +0.150 HD
ATOM     28  O   TYR A   3      31.163  61.714  53.034  0.00  0.00    -0.273 OA
BRANCH  26  29
ATOM     29  CA  TYR A   4      29.994  60.240  55.059  0.00  0.00    +0.141 C 
BRANCH  29  30
ATOM     30  C   TYR A   4      28.998  60.284  56.197  0.00  0.00    +0.227 C 
ATOM     31  O   TYR A   4      29.346  60.631  57.309  0.00  0.00    -0.286 OA
ENDBRANCH  29  30
BRANCH  29  32
ATOM     32  CB  TYR A   4      30.549  58.800  54.862  0.00  0.00    +0.054 C 
BRANCH  32  33
ATOM     33  CG  TYR A   4      31.556  58.361  55.898  0.00  0.00    -0.020 A 
ATOM     34  CD2 TYR A   4      31.150  57.742  57.082  0.00  0.00    -0.001 A 
ATOM     35  CE2 TYR A   4      32.077  57.338  58.044  0.00  0.00    +0.036 A 
ATOM     36  CZ  TYR A   4      33.424  57.550  57.818  0.00  0.00    +0.134 A 
ATOM     37  CE1 TYR A   4      33.846  58.145  56.640  0.00  0.00    +0.036 A 
ATOM     38  CD1 TYR A   4      32.914  58.534  55.685  0.00  0.00    -0.001 A 
BRANCH  36  39
ATOM     39  OH  TYR A   4      34.358  57.156  58.746  0.00  0.00    -0.506 OA
ATOM     40  HH  TYR A   4      33.898  56.752  59.524  0.00  0.00    +0.292 HD
ENDBRANCH  36  39
ENDBRANCH  32  33
ENDBRANCH  29  32
ENDBRANCH  26  29
ENDBRANCH   1  25
BRANCH   1  41
ATOM     41  CB  TYR A   3      32.505  64.194  54.107  0.00  0.00    +0.055 C 
BRANCH  41  42
ATOM     42  CG  TYR A   3      33.626  65.136  54.483  0.00  0.00    -0.020 A 
ATOM     43  CD2 TYR A   3      33.577  65.877  55.665  0.00  0.00    -0.001 A 
ATOM     44  CE2 TYR A   3      34.596  66.768  56.001  0.00  0.00    +0.036 A 
ATOM     45  CZ  TYR A   3      35.677  66.918  55.151  0.00  0.00    +0.134 A 
ATOM     46  CE1 TYR A   3      35.725  66.220  53.958  0.00  0.00    +0.036 A 
ATOM     47  CD1 TYR A   3      34.695  65.351  53.625  0.00  0.00    -0.001 A 
BRANCH  45  48
ATOM     48  OH  TYR A   3      36.675  67.804  55.436  0.00  0.00    -0.506 OA
ATOM     49  HH  TYR A   3      36.297  68.717  55.494  0.00  0.00    +0.292 HD
ENDBRANCH  45  48
ENDBRANCH  41  42
ENDBRANCH   1  41
TORSDOF 19
REMARK  Name = ../refined-set-2016/4s1g/4s1g_pocket.pdb
REMARK  198 active torsions:
REMARK  status: ('A' for Active; 'I' for Inactive)
REMARK    1  A    between atoms: _1  and  _3
REMARK    2  A    between atoms: _3  and  _4
REMARK    3  A    between atoms: _3  and  _6
REMARK    4  A    between atoms: _6  and  _7
REMARK    5  A    between atoms: _12  and  _13
REMARK    6  A    between atoms: _15  and  _17
REMARK    7  A    between atoms: _17  and  _18
REMARK    8  A    between atoms: _17  and  _20
REMARK    9  A    between atoms: _20  and  _21
REMARK   10  A    between atoms: _24  and  _26
REMARK   11  A    between atoms: _26  and  _27
REMARK   12  A    between atoms: _26  and  _29
REMARK   13  A    between atoms: _29  and  _30
REMARK   14  A    between atoms: _30  and  _31
REMARK   15  A    between atoms: _36  and  _38
REMARK   16  A    between atoms: _38  and  _39
REMARK   17  A    between atoms: _38  and  _41
REMARK   18  A    between atoms: _41  and  _42
REMARK   19  A    between atoms: _47  and  _48
REMARK   20  A    between atoms: _50  and  _52
REMARK   21  A    between atoms: _52  and  _53
REMARK   22  A    between atoms: _52  and  _55
REMARK   23  A    between atoms: _55  and  _56
REMARK   24  A    between atoms: _61  and  _62
REMARK   25  A    between atoms: _64  and  _66
REMARK   26  A    between atoms: _66  and  _67
REMARK   27  A    between atoms: _66  and  _69
REMARK   28  A    between atoms: _72  and  _74
REMARK   29  A    between atoms: _74  and  _75
REMARK   30  A    between atoms: _74  and  _77
REMARK   31  A    between atoms: _77  and  _78
REMARK   32  A    between atoms: _84  and  _86
REMARK   33  A    between atoms: _86  and  _87
REMARK   34  A    between atoms: _86  and  _89
REMARK   35  A    between atoms: _89  and  _90
REMARK   36  A    between atoms: _93  and  _95
REMARK   37  A    between atoms: _95  and  _96
REMARK   38  A    between atoms: _95  and  _98
REMARK   39  A    between atoms: _98  and  _99
REMARK   40  A    between atoms: _102  and  _104
REMARK   41  A    between atoms: _104  and  _105
REMARK   42  A    between atoms: _107  and  _109
REMARK   43  A    between atoms: _109  and  _110
REMARK   44  A    between atoms: _109  and  _112
REMARK   45  A    between atoms: _112  and  _113
REMARK   46  A    between atoms: _115  and  _117
REMARK   47  A    between atoms: _117  and  _118
REMARK   48  A    between atoms: _117  and  _120
REMARK   49  A    between atoms: _120  and  _121
REMARK   50  A    between atoms: _123  and  _125
REMARK   51  A    between atoms: _125  and  _126
REMARK   52  A    between atoms: _125  and  _128
REMARK   53  A    between atoms: _128  and  _129
REMARK   54  A    between atoms: _134  and  _136
REMARK   55  A    between atoms: _136  and  _137
REMARK   56  A    between atoms: _136  and  _139
REMARK   57  A    between atoms: _139  and  _140
REMARK   58  A    between atoms: _150  and  _152
REMARK   59  A    between atoms: _152  and  _153
REMARK   60  A    between atoms: _152  and  _155
REMARK   61  A    between atoms: _155  and  _156
REMARK   62  A    between atoms: _159  and  _161
REMARK   63  A    between atoms: _161  and  _162
REMARK   64  A    between atoms: _161  and  _164
REMARK   65  A    between atoms: _164  and  _165
REMARK   66  A    between atoms: _165  and  _166
REMARK   67  A    between atoms: _166  and  _167
REMARK   68  A    between atoms: _176  and  _178
REMARK   69  A    between atoms: _178  and  _179
REMARK   70  A    between atoms: _178  and  _181
REMARK   71  A    between atoms: _181  and  _182
REMARK   72  A    between atoms: _187  and  _188
REMARK   73  A    between atoms: _190  and  _192
REMARK   74  A    between atoms: _192  and  _193
REMARK   75  A    between atoms: _192  and  _195
REMARK   76  A    between atoms: _195  and  _196
REMARK   77  A    between atoms: _198  and  _200
REMARK   78  A    between atoms: _200  and  _201
REMARK   79  A    between atoms: _200  and  _203
REMARK   80  A    between atoms: _203  and  _204
REMARK   81  A    between atoms: _207  and  _209
REMARK   82  A    between atoms: _209  and  _210
REMARK   83  A    between atoms: _212  and  _214
REMARK   84  A    between atoms: _214  and  _215
REMARK   85  A    between atoms: _214  and  _217
REMARK   86  A    between atoms: _221  and  _222
REMARK   87  A    between atoms: _227  and  _229
REMARK   88  A    between atoms: _229  and  _230
REMARK   89  A    between atoms: _233  and  _235
REMARK   90  A    between atoms: _235  and  _236
REMARK   91  A    between atoms: _235  and  _238
REMARK   92  A    between atoms: _238  and  _239
REMARK   93  A    between atoms: _243  and  _244
REMARK   94  A    between atoms: _249  and  _251
REMARK   95  A    between atoms: _251  and  _252
REMARK   96  A    between atoms: _251  and  _254
REMARK   97  A    between atoms: _254  and  _255
REMARK   98  A    between atoms: _261  and  _263
REMARK   99  A    between atoms: _263  and  _264
REMARK  100  A    between atoms: _263  and  _266
REMARK  101  A    between atoms: _266  and  _267
REMARK  102  A    between atoms: _267  and  _268
REMARK  103  A    between atoms: _270  and  _272
REMARK  104  A    between atoms: _272  and  _273
REMARK  105  A    between atoms: _272  and  _275
REMARK  106  A    between atoms: _275  and  _276
REMARK  107  A    between atoms: _279  and  _281
REMARK  108  A    between atoms: _281  and  _282
REMARK  109  A    between atoms: _285  and  _287
REMARK  110  A    between atoms: _287  and  _288
REMARK  111  A    between atoms: _287  and  _290
REMARK  112  A    between atoms: _290  and  _291
REMARK  113  A    between atoms: _291  and  _292
REMARK  114  A    between atoms: _295  and  _297
REMARK  115  A    between atoms: _297  and  _298
REMARK  116  A    between atoms: _297  and  _300
REMARK  117  A    between atoms: _300  and  _301
REMARK  118  A    between atoms: _307  and  _309
REMARK  119  A    between atoms: _309  and  _310
REMARK  120  A    between atoms: _312  and  _314
REMARK  121  A    between atoms: _314  and  _315
REMARK  122  A    between atoms: _314  and  _317
REMARK  123  A    between atoms: _320  and  _322
REMARK  124  A    between atoms: _322  and  _323
REMARK  125  A    between atoms: _322  and  _325
REMARK  126  A    between atoms: _328  and  _330
REMARK  127  A    between atoms: _330  and  _331
REMARK  128  A    between atoms: _333  and  _335
REMARK  129  A    between atoms: _335  and  _336
REMARK  130  A    between atoms: _335  and  _338
REMARK  131  A    between atoms: _338  and  _339
REMARK  132  A    between atoms: _339  and  _340
REMARK  133  A    between atoms: _342  and  _344
REMARK  134  A    between atoms: _344  and  _345
REMARK  135  A    between atoms: _344  and  _347
REMARK  136  A    between atoms: _347  and  _348
REMARK  137  A    between atoms: _353  and  _354
REMARK  138  A    between atoms: _356  and  _358
REMARK  139  A    between atoms: _358  and  _359
REMARK  140  A    between atoms: _358  and  _361
REMARK  141  A    between atoms: _361  and  _362
REMARK  142  A    between atoms: _365  and  _367
REMARK  143  A    between atoms: _367  and  _368
REMARK  144  A    between atoms: _367  and  _370
REMARK  145  A    between atoms: _373  and  _375
REMARK  146  A    between atoms: _375  and  _376
REMARK  147  A    between atoms: _375  and  _378
REMARK  148  A    between atoms: _378  and  _379
REMARK  149  A    between atoms: _382  and  _384
REMARK  150  A    between atoms: _384  and  _385
REMARK  151  A    between atoms: _384  and  _387
REMARK  152  A    between atoms: _387  and  _388
REMARK  153  A    between atoms: _391  and  _393
REMARK  154  A    between atoms: _393  and  _394
REMARK  155  A    between atoms: _396  and  _398
REMARK  156  A    between atoms: _398  and  _399
REMARK  157  A    between atoms: _402  and  _404
REMARK  158  A    between atoms: _404  and  _405
REMARK  159  A    between atoms: _404  and  _407
REMARK  160  A    between atoms: _407  and  _408
REMARK  161  A    between atoms: _410  and  _412
REMARK  162  A    between atoms: _412  and  _413
REMARK  163  A    between atoms: _412  and  _415
REMARK  164  A    between atoms: _415  and  _416
REMARK  165  A    between atoms: _421  and  _422
REMARK  166  A    between atoms: _424  and  _426
REMARK  167  A    between atoms: _426  and  _427
REMARK  168  A    between atoms: _426  and  _429
REMARK  169  A    between atoms: _429  and  _430
REMARK  170  A    between atoms: _433  and  _435
REMARK  171  A    between atoms: _435  and  _436
REMARK  172  A    between atoms: _435  and  _438
REMARK  173  A    between atoms: _438  and  _439
REMARK  174  A    between atoms: _441  and  _443
REMARK  175  A    between atoms: _443  and  _444
REMARK  176  A    between atoms: _446  and  _448
REMARK  177  A    between atoms: _448  and  _449
REMARK  178  A    between atoms: _448  and  _451
REMARK  179  A    between atoms: _451  and  _452
REMARK  180  A    between atoms: _457  and  _459
REMARK  181  A    between atoms: _459  and  _460
REMARK  182  A    between atoms: _463  and  _465
REMARK  183  A    between atoms: _465  and  _466
REMARK  184  A    between atoms: _465  and  _468
REMARK  185  A    between atoms: _468  and  _469
REMARK  186  A    between atoms: _469  and  _470
REMARK  187  A    between atoms: _472  and  _474
REMARK  188  A    between atoms: _474  and  _475
REMARK  189  A    between atoms: _474  and  _477
REMARK  190  A    between atoms: _477  and  _478
REMARK  191  A    between atoms: _481  and  _483
REMARK  192  A    between atoms: _483  and  _484
REMARK  193  A    between atoms: _483  and  _486
REMARK  194  A    between atoms: _486  and  _487
REMARK  195  A    between atoms: _490  and  _492
REMARK  196  A    between atoms: _492  and  _493
REMARK  197  A    between atoms: _496  and  _498
REMARK  198  A    between atoms: _498  and  _499
REMARK                            x       y       z     vdW  Elec       q    Type
REMARK                         _______ _______ _______ _____ _____    ______ ____
ROOT
ATOM      1  CA  THR A   4      26.902  65.680  43.709  0.00  0.00    +0.176 C 
ENDROOT
BRANCH   1   3
ATOM      2  C   ASP A   3      27.096  63.603  45.000  0.00  0.00    +0.241 C 
ATOM      3  N   THR A   4      27.472  64.885  44.820  0.00  0.00    -0.295 N 
ATOM      4  H   THR A   4      28.165  65.317  45.464  0.00  0.00    +0.150 HD
ATOM      5  O   ASP A   3      26.334  63.020  44.230  0.00  0.00    -0.273 OA
BRANCH   2   6
ATOM      6  CA  ASP A   3      27.784  62.814  46.137  0.00  0.00    +0.160 C 
BRANCH   6   9
ATOM      7  C   PHE A   2      27.151  62.907  48.510  0.00  0.00    +0.241 C 
ATOM      8  O   PHE A   2      27.944  63.802  48.774  0.00  0.00    -0.273 OA
ATOM      9  N   ASP A   3      26.967  62.447  47.286  0.00  0.00    -0.297 N 
ATOM     10  H   ASP A   3      26.186  61.778  47.132  0.00  0.00    +0.150 HD
BRANCH   7  11
ATOM     11  CA  PHE A   2      26.424  62.141  49.593  0.00  0.00    +0.153 C 
BRANCH  11  13
ATOM     12  C   VAL A   1      27.892  60.158  49.930  0.00  0.00    +0.238 C 
ATOM     13  N   PHE A   2      27.524  61.413  50.249  0.00  0.00    -0.297 N 
ATOM     14  H   PHE A   2      28.048  61.898  51.005  0.00  0.00    +0.150 HD
ATOM     15  O   VAL A   1      27.285  59.461  49.097  0.00  0.00    -0.274 OA
BRANCH  12  16
ATOM     16  CA  VAL A   1      29.117  59.575  50.671  0.00  0.00    +0.145 C 
BRANCH  16  17
ATOM     17  CB  VAL A   1      30.379  59.545  49.764  0.00  0.00    +0.025 C 
ATOM     18  CG2 VAL A   1      31.593  59.049  50.534  0.00  0.00    +0.002 C 
ATOM     19  CG1 VAL A   1      30.666  60.927  49.158  0.00  0.00    +0.002 C 
ENDBRANCH  16  17
BRANCH  16  20
ATOM     20  N   VAL A   1      28.700  58.248  51.120  0.00  0.00    -0.238 NA
ATOM     21  H   VAL A   1      28.904  57.424  50.519  0.00  0.00    +0.142 HD
ENDBRANCH  16  20
ENDBRANCH  12  16
ENDBRANCH  11  13
BRANCH  11  22
ATOM     22  CB  PHE A   2      25.665  63.038  50.597  0.00  0.00    +0.055 C 
BRANCH  22  23
ATOM     23  CG  PHE A   2      24.900  62.219  51.614  0.00  0.00    -0.020 A 
ATOM     24  CD2 PHE A   2      25.466  61.906  52.854  0.00  0.00    -0.004 A 
ATOM     25  CE2 PHE A   2      24.766  61.125  53.789  0.00  0.00    -0.000 A 
ATOM     26  CZ  PHE A   2      23.492  60.660  53.495  0.00  0.00    -0.000 A 
ATOM     27  CE1 PHE A   2      22.904  60.985  52.281  0.00  0.00    -0.000 A 
ATOM     28  CD1 PHE A   2      23.613  61.766  51.340  0.00  0.00    -0.004 A 
ENDBRANCH  22  23
ENDBRANCH  11  22
ENDBRANCH   7  11
ENDBRANCH   6   9
BRANCH   6  29
ATOM     29  CB  ASP A   3      28.355  61.491  45.605  0.00  0.00    +0.143 C 
BRANCH  29  30
ATOM     30  CG  ASP A   3      29.278  61.566  44.443  0.00  0.00    +0.367 C 
ATOM     31  OD2 ASP A   3      29.915  62.608  44.267  0.00  0.00    -0.246 OA
ATOM     32  OD1 ASP A   3      29.400  60.565  43.733  0.00  0.00    -0.246 OA
ENDBRANCH  29  30
ENDBRANCH   6  29
ENDBRANCH   2   6
ENDBRANCH   1   3
BRANCH   1  33
ATOM     33  C   THR A   4      27.532  65.299  42.357  0.00  0.00    +0.243 C 
ATOM     34  N   GLY A   5      28.627  64.557  42.389  0.00  0.00    -0.295 N 
ATOM     35  H   GLY A   5      29.029  64.312  43.316  0.00  0.00    +0.150 HD
ATOM     36  O   THR A   4      26.989  65.650  41.320  0.00  0.00    -0.273 OA
BRANCH  34  37
ATOM     37  CA  GLY A   5      29.301  64.063  41.190  0.00  0.00    +0.176 C 
BRANCH  37  38
ATOM     38  C   GLY A   5      28.720  62.808  40.567  0.00  0.00    +0.243 C 
ATOM     39  N   SER A   6      27.655  62.228  41.148  0.00  0.00    -0.295 N 
ATOM     40  H   SER A   6      27.265  62.634  42.022  0.00  0.00    +0.150 HD
ATOM     41  O   GLY A   5      29.261  62.310  39.584  0.00  0.00    -0.273 OA
BRANCH  39  42
ATOM     42  CA  SER A   6      27.031  61.024  40.564  0.00  0.00    +0.178 C 
BRANCH  42  43
ATOM     43  C   SER A   6      25.547  61.057  40.869  0.00  0.00    +0.243 C 
ATOM     44  O   SER A   6      25.128  61.879  41.681  0.00  0.00    -0.273 OA
ATOM     45  N   SER A   7      24.742  60.192  40.210  0.00  0.00    -0.295 N 
ATOM     46  H   SER A   7      25.166  59.486  39.575  0.00  0.00    +0.150 HD
BRANCH  45  47
ATOM     47  CA  SER A   7      23.299  60.227  40.370  0.00  0.00    +0.178 C 
BRANCH  47  48
ATOM     48  C   SER A   7      22.643  58.934  40.828  0.00  0.00    +0.243 C 
ATOM     49  N   ASN A   8      23.427  57.896  41.152  0.00  0.00    -0.298 N 
ATOM     50  H   ASN A   8      24.460  57.991  41.082  0.00  0.00    +0.150 HD
ATOM     51  O   SER A   7      21.414  58.888  40.913  0.00  0.00    -0.273 OA
BRANCH  49  52
ATOM     52  CA  ASN A   8      22.847  56.632  41.602  0.00  0.00    +0.146 C 
BRANCH  52  53
ATOM     53  C   ASN A   8      23.111  56.376  43.074  0.00  0.00    +0.227 C 
ATOM     54  O   ASN A   8      24.142  56.797  43.612  0.00  0.00    -0.286 OA
ENDBRANCH  52  53
BRANCH  52  55
ATOM     55  CB  ASN A   8      23.472  55.476  40.790  0.00  0.00    +0.112 C 
BRANCH  55  56
ATOM     56  CG  ASN A   8      22.985  55.457  39.364  0.00  0.00    +0.222 C 
ATOM     57  ND2 ASN A   8      22.168  54.486  39.020  0.00  0.00    -0.329 N 
ATOM     58 HD21 ASN A   8      21.923  53.745  39.707  0.00  0.00    +0.145 HD
ATOM     59 HD22 ASN A   8      21.767  54.459  38.061  0.00  0.00    +0.145 HD
ATOM     60  OD1 ASN A   8      23.288  56.340  38.574  0.00  0.00    -0.275 OA
ENDBRANCH  55  56
ENDBRANCH  52  55
ENDBRANCH  49  52
ENDBRANCH  47  48
BRANCH  47  61
ATOM     61  CB  SER A   7      22.651  60.702  39.072  0.00  0.00    +0.166 C 
BRANCH  61  62
ATOM     62  OG  SER A   7      23.255  61.892  38.584  0.00  0.00    -0.380 OA
ATOM     63  H   SER A   7      24.215  61.726  38.410  0.00  0.00    +0.211 HD
ENDBRANCH  61  62
ENDBRANCH  47  61
ENDBRANCH  45  47
ENDBRANCH  42  43
BRANCH  42  64
ATOM     64  CB  SER A   6      27.706  59.733  41.040  0.00  0.00    +0.166 C 
BRANCH  64  65
ATOM     65  OG  SER A   6      27.415  59.421  42.396  0.00  0.00    -0.380 OA
ATOM     66  H   SER A   6      27.730  60.158  42.978  0.00  0.00    +0.211 HD
ENDBRANCH  64  65
ENDBRANCH  42  64
ENDBRANCH  39  42
ENDBRANCH  37  38
ENDBRANCH  34  37
ENDBRANCH   1  33
BRANCH   1  67
ATOM     67  CB  THR A   4      26.989  67.173  43.976  0.00  0.00    +0.137 C 
ATOM     68  CG2 THR A   4      26.099  67.604  45.135  0.00  0.00    +0.034 C 
BRANCH  67  69
ATOM     69  OG1 THR A   4      28.357  67.501  44.222  0.00  0.00    -0.382 OA
ATOM     70  HG1 THR A   4      28.436  68.472  44.399  0.00  0.00    +0.210 HD
ENDBRANCH  67  69
ENDBRANCH   1  67
TORSDOF 29
REMARK  Name = ../refined-set-2016/4s1g/4s1g_pocket.pdb
REMARK  198 active torsions:
REMARK  status: ('A' for Active; 'I' for Inactive)
REMARK    1  A    between atoms: _1  and  _3
REMARK    2  A    between atoms: _3  and  _4
REMARK    3  A    between atoms: _3  and  _6
REMARK    4  A    between atoms: _6  and  _7
REMARK    5  A    between atoms: _12  and  _13
REMARK    6  A    between atoms: _15  and  _17
REMARK    7  A    between atoms: _17  and  _18
REMARK    8  A    between atoms: _17  and  _20
REMARK    9  A    between atoms: _20  and  _21
REMARK   10  A    between atoms: _24  and  _26
REMARK   11  A    between atoms: _26  and  _27
REMARK   12  A    between atoms: _26  and  _29
REMARK   13  A    between atoms: _29  and  _30
REMARK   14  A    between atoms: _30  and  _31
REMARK   15  A    between atoms: _36  and  _38
REMARK   16  A    between atoms: _38  and  _39
REMARK   17  A    between atoms: _38  and  _41
REMARK   18  A    between atoms: _41  and  _42
REMARK   19  A    between atoms: _47  and  _48
REMARK   20  A    between atoms: _50  and  _52
REMARK   21  A    between atoms: _52  and  _53
REMARK   22  A    between atoms: _52  and  _55
REMARK   23  A    between atoms: _55  and  _56
REMARK   24  A    between atoms: _61  and  _62
REMARK   25  A    between atoms: _64  and  _66
REMARK   26  A    between atoms: _66  and  _67
REMARK   27  A    between atoms: _66  and  _69
REMARK   28  A    between atoms: _72  and  _74
REMARK   29  A    between atoms: _74  and  _75
REMARK   30  A    between atoms: _74  and  _77
REMARK   31  A    between atoms: _77  and  _78
REMARK   32  A    between atoms: _84  and  _86
REMARK   33  A    between atoms: _86  and  _87
REMARK   34  A    between atoms: _86  and  _89
REMARK   35  A    between atoms: _89  and  _90
REMARK   36  A    between atoms: _93  and  _95
REMARK   37  A    between atoms: _95  and  _96
REMARK   38  A    between atoms: _95  and  _98
REMARK   39  A    between atoms: _98  and  _99
REMARK   40  A    between atoms: _102  and  _104
REMARK   41  A    between atoms: _104  and  _105
REMARK   42  A    between atoms: _107  and  _109
REMARK   43  A    between atoms: _109  and  _110
REMARK   44  A    between atoms: _109  and  _112
REMARK   45  A    between atoms: _112  and  _113
REMARK   46  A    between atoms: _115  and  _117
REMARK   47  A    between atoms: _117  and  _118
REMARK   48  A    between atoms: _117  and  _120
REMARK   49  A    between atoms: _120  and  _121
REMARK   50  A    between atoms: _123  and  _125
REMARK   51  A    between atoms: _125  and  _126
REMARK   52  A    between atoms: _125  and  _128
REMARK   53  A    between atoms: _128  and  _129
REMARK   54  A    between atoms: _134  and  _136
REMARK   55  A    between atoms: _136  and  _137
REMARK   56  A    between atoms: _136  and  _139
REMARK   57  A    between atoms: _139  and  _140
REMARK   58  A    between atoms: _150  and  _152
REMARK   59  A    between atoms: _152  and  _153
REMARK   60  A    between atoms: _152  and  _155
REMARK   61  A    between atoms: _155  and  _156
REMARK   62  A    between atoms: _159  and  _161
REMARK   63  A    between atoms: _161  and  _162
REMARK   64  A    between atoms: _161  and  _164
REMARK   65  A    between atoms: _164  and  _165
REMARK   66  A    between atoms: _165  and  _166
REMARK   67  A    between atoms: _166  and  _167
REMARK   68  A    between atoms: _176  and  _178
REMARK   69  A    between atoms: _178  and  _179
REMARK   70  A    between atoms: _178  and  _181
REMARK   71  A    between atoms: _181  and  _182
REMARK   72  A    between atoms: _187  and  _188
REMARK   73  A    between atoms: _190  and  _192
REMARK   74  A    between atoms: _192  and  _193
REMARK   75  A    between atoms: _192  and  _195
REMARK   76  A    between atoms: _195  and  _196
REMARK   77  A    between atoms: _198  and  _200
REMARK   78  A    between atoms: _200  and  _201
REMARK   79  A    between atoms: _200  and  _203
REMARK   80  A    between atoms: _203  and  _204
REMARK   81  A    between atoms: _207  and  _209
REMARK   82  A    between atoms: _209  and  _210
REMARK   83  A    between atoms: _212  and  _214
REMARK   84  A    between atoms: _214  and  _215
REMARK   85  A    between atoms: _214  and  _217
REMARK   86  A    between atoms: _221  and  _222
REMARK   87  A    between atoms: _227  and  _229
REMARK   88  A    between atoms: _229  and  _230
REMARK   89  A    between atoms: _233  and  _235
REMARK   90  A    between atoms: _235  and  _236
REMARK   91  A    between atoms: _235  and  _238
REMARK   92  A    between atoms: _238  and  _239
REMARK   93  A    between atoms: _243  and  _244
REMARK   94  A    between atoms: _249  and  _251
REMARK   95  A    between atoms: _251  and  _252
REMARK   96  A    between atoms: _251  and  _254
REMARK   97  A    between atoms: _254  and  _255
REMARK   98  A    between atoms: _261  and  _263
REMARK   99  A    between atoms: _263  and  _264
REMARK  100  A    between atoms: _263  and  _266
REMARK  101  A    between atoms: _266  and  _267
REMARK  102  A    between atoms: _267  and  _268
REMARK  103  A    between atoms: _270  and  _272
REMARK  104  A    between atoms: _272  and  _273
REMARK  105  A    between atoms: _272  and  _275
REMARK  106  A    between atoms: _275  and  _276
REMARK  107  A    between atoms: _279  and  _281
REMARK  108  A    between atoms: _281  and  _282
REMARK  109  A    between atoms: _285  and  _287
REMARK  110  A    between atoms: _287  and  _288
REMARK  111  A    between atoms: _287  and  _290
REMARK  112  A    between atoms: _290  and  _291
REMARK  113  A    between atoms: _291  and  _292
REMARK  114  A    between atoms: _295  and  _297
REMARK  115  A    between atoms: _297  and  _298
REMARK  116  A    between atoms: _297  and  _300
REMARK  117  A    between atoms: _300  and  _301
REMARK  118  A    between atoms: _307  and  _309
REMARK  119  A    between atoms: _309  and  _310
REMARK  120  A    between atoms: _312  and  _314
REMARK  121  A    between atoms: _314  and  _315
REMARK  122  A    between atoms: _314  and  _317
REMARK  123  A    between atoms: _320  and  _322
REMARK  124  A    between atoms: _322  and  _323
REMARK  125  A    between atoms: _322  and  _325
REMARK  126  A    between atoms: _328  and  _330
REMARK  127  A    between atoms: _330  and  _331
REMARK  128  A    between atoms: _333  and  _335
REMARK  129  A    between atoms: _335  and  _336
REMARK  130  A    between atoms: _335  and  _338
REMARK  131  A    between atoms: _338  and  _339
REMARK  132  A    between atoms: _339  and  _340
REMARK  133  A    between atoms: _342  and  _344
REMARK  134  A    between atoms: _344  and  _345
REMARK  135  A    between atoms: _344  and  _347
REMARK  136  A    between atoms: _347  and  _348
REMARK  137  A    between atoms: _353  and  _354
REMARK  138  A    between atoms: _356  and  _358
REMARK  139  A    between atoms: _358  and  _359
REMARK  140  A    between atoms: _358  and  _361
REMARK  141  A    between atoms: _361  and  _362
REMARK  142  A    between atoms: _365  and  _367
REMARK  143  A    between atoms: _367  and  _368
REMARK  144  A    between atoms: _367  and  _370
REMARK  145  A    between atoms: _373  and  _375
REMARK  146  A    between atoms: _375  and  _376
REMARK  147  A    between atoms: _375  and  _378
REMARK  148  A    between atoms: _378  and  _379
REMARK  149  A    between atoms: _382  and  _384
REMARK  150  A    between atoms: _384  and  _385
REMARK  151  A    between atoms: _384  and  _387
REMARK  152  A    between atoms: _387  and  _388
REMARK  153  A    between atoms: _391  and  _393
REMARK  154  A    between atoms: _393  and  _394
REMARK  155  A    between atoms: _396  and  _398
REMARK  156  A    between atoms: _398  and  _399
REMARK  157  A    between atoms: _402  and  _404
REMARK  158  A    between atoms: _404  and  _405
REMARK  159  A    between atoms: _404  and  _407
REMARK  160  A    between atoms: _407  and  _408
REMARK  161  A    between atoms: _410  and  _412
REMARK  162  A    between atoms: _412  and  _413
REMARK  163  A    between atoms: _412  and  _415
REMARK  164  A    between atoms: _415  and  _416
REMARK  165  A    between atoms: _421  and  _422
REMARK  166  A    between atoms: _424  and  _426
REMARK  167  A    between atoms: _426  and  _427
REMARK  168  A    between atoms: _426  and  _429
REMARK  169  A    between atoms: _429  and  _430
REMARK  170  A    between atoms: _433  and  _435
REMARK  171  A    between atoms: _435  and  _436
REMARK  172  A    between atoms: _435  and  _438
REMARK  173  A    between atoms: _438  and  _439
REMARK  174  A    between atoms: _441  and  _443
REMARK  175  A    between atoms: _443  and  _444
REMARK  176  A    between atoms: _446  and  _448
REMARK  177  A    between atoms: _448  and  _449
REMARK  178  A    between atoms: _448  and  _451
REMARK  179  A    between atoms: _451  and  _452
REMARK  180  A    between atoms: _457  and  _459
REMARK  181  A    between atoms: _459  and  _460
REMARK  182  A    between atoms: _463  and  _465
REMARK  183  A    between atoms: _465  and  _466
REMARK  184  A    between atoms: _465  and  _468
REMARK  185  A    between atoms: _468  and  _469
REMARK  186  A    between atoms: _469  and  _470
REMARK  187  A    between atoms: _472  and  _474
REMARK  188  A    between atoms: _474  and  _475
REMARK  189  A    between atoms: _474  and  _477
REMARK  190  A    between atoms: _477  and  _478
REMARK  191  A    between atoms: _481  and  _483
REMARK  192  A    between atoms: _483  and  _484
REMARK  193  A    between atoms: _483  and  _486
REMARK  194  A    between atoms: _486  and  _487
REMARK  195  A    between atoms: _490  and  _492
REMARK  196  A    between atoms: _492  and  _493
REMARK  197  A    between atoms: _496  and  _498
REMARK  198  A    between atoms: _498  and  _499
REMARK                            x       y       z     vdW  Elec       q    Type
REMARK                         _______ _______ _______ _____ _____    ______ ____
ROOT
ATOM      1  CG  TRP A   1      26.690  52.284  44.496  0.00  0.00    -0.002 A 
ATOM      2  CD2 TRP A   1      27.877  51.864  45.190  0.00  0.00    +0.013 A 
ATOM      3  CE3 TRP A   1      28.170  50.804  46.072  0.00  0.00    +0.001 A 
ATOM      4  CZ3 TRP A   1      29.467  50.674  46.552  0.00  0.00    +0.000 A 
ATOM      5  CH2 TRP A   1      30.467  51.590  46.185  0.00  0.00    +0.001 A 
ATOM      6  CZ2 TRP A   1      30.213  52.627  45.312  0.00  0.00    +0.017 A 
ATOM      7  CE2 TRP A   1      28.914  52.746  44.817  0.00  0.00    +0.056 A 
ATOM      8  NE1 TRP A   1      28.372  53.672  43.963  0.00  0.00    -0.352 N 
ATOM      9  HE1 TRP A   1      28.883  54.472  43.538  0.00  0.00    +0.166 HD
ATOM     10  CD1 TRP A   1      27.044  53.375  43.758  0.00  0.00    +0.068 A 
ENDROOT
BRANCH   1  11
ATOM     11  CB  TRP A   1      25.352  51.593  44.501  0.00  0.00    +0.053 C 
BRANCH  11  12
ATOM     12  CA  TRP A   1      24.430  51.968  45.681  0.00  0.00    +0.137 C 
BRANCH  12  13
ATOM     13  N   TRP A   1      23.959  53.350  45.640  0.00  0.00    -0.239 NA
ATOM     14  H   TRP A   1      24.454  54.072  46.202  0.00  0.00    +0.142 HD
ENDBRANCH  12  13
BRANCH  12  15
ATOM     15  C   TRP A   1      25.064  51.641  47.012  0.00  0.00    +0.224 C 
ATOM     16  O   TRP A   1      25.658  52.508  47.645  0.00  0.00    -0.287 OA
ENDBRANCH  12  15
ENDBRANCH  11  12
ENDBRANCH   1  11
TORSDOF 4
REMARK  Name = ../refined-set-2016/4s1g/4s1g_pocket.pdb
REMARK  198 active torsions:
REMARK  status: ('A' for Active; 'I' for Inactive)
REMARK    1  A    between atoms: _1  and  _3
REMARK    2  A    between atoms: _3  and  _4
REMARK    3  A    between atoms: _3  and  _6
REMARK    4  A    between atoms: _6  and  _7
REMARK    5  A    between atoms: _12  and  _13
REMARK    6  A    between atoms: _15  and  _17
REMARK    7  A    between atoms: _17  and  _18
REMARK    8  A    between atoms: _17  and  _20
REMARK    9  A    between atoms: _20  and  _21
REMARK   10  A    between atoms: _24  and  _26
REMARK   11  A    between atoms: _26  and  _27
REMARK   12  A    between atoms: _26  and  _29
REMARK   13  A    between atoms: _29  and  _30
REMARK   14  A    between atoms: _30  and  _31
REMARK   15  A    between atoms: _36  and  _38
REMARK   16  A    between atoms: _38  and  _39
REMARK   17  A    between atoms: _38  and  _41
REMARK   18  A    between atoms: _41  and  _42
REMARK   19  A    between atoms: _47  and  _48
REMARK   20  A    between atoms: _50  and  _52
REMARK   21  A    between atoms: _52  and  _53
REMARK   22  A    between atoms: _52  and  _55
REMARK   23  A    between atoms: _55  and  _56
REMARK   24  A    between atoms: _61  and  _62
REMARK   25  A    between atoms: _64  and  _66
REMARK   26  A    between atoms: _66  and  _67
REMARK   27  A    between atoms: _66  and  _69
REMARK   28  A    between atoms: _72  and  _74
REMARK   29  A    between atoms: _74  and  _75
REMARK   30  A    between atoms: _74  and  _77
REMARK   31  A    between atoms: _77  and  _78
REMARK   32  A    between atoms: _84  and  _86
REMARK   33  A    between atoms: _86  and  _87
REMARK   34  A    between atoms: _86  and  _89
REMARK   35  A    between atoms: _89  and  _90
REMARK   36  A    between atoms: _93  and  _95
REMARK   37  A    between atoms: _95  and  _96
REMARK   38  A    between atoms: _95  and  _98
REMARK   39  A    between atoms: _98  and  _99
REMARK   40  A    between atoms: _102  and  _104
REMARK   41  A    between atoms: _104  and  _105
REMARK   42  A    between atoms: _107  and  _109
REMARK   43  A    between atoms: _109  and  _110
REMARK   44  A    between atoms: _109  and  _112
REMARK   45  A    between atoms: _112  and  _113
REMARK   46  A    between atoms: _115  and  _117
REMARK   47  A    between atoms: _117  and  _118
REMARK   48  A    between atoms: _117  and  _120
REMARK   49  A    between atoms: _120  and  _121
REMARK   50  A    between atoms: _123  and  _125
REMARK   51  A    between atoms: _125  and  _126
REMARK   52  A    between atoms: _125  and  _128
REMARK   53  A    between atoms: _128  and  _129
REMARK   54  A    between atoms: _134  and  _136
REMARK   55  A    between atoms: _136  and  _137
REMARK   56  A    between atoms: _136  and  _139
REMARK   57  A    between atoms: _139  and  _140
REMARK   58  A    between atoms: _150  and  _152
REMARK   59  A    between atoms: _152  and  _153
REMARK   60  A    between atoms: _152  and  _155
REMARK   61  A    between atoms: _155  and  _156
REMARK   62  A    between atoms: _159  and  _161
REMARK   63  A    between atoms: _161  and  _162
REMARK   64  A    between atoms: _161  and  _164
REMARK   65  A    between atoms: _164  and  _165
REMARK   66  A    between atoms: _165  and  _166
REMARK   67  A    between atoms: _166  and  _167
REMARK   68  A    between atoms: _176  and  _178
REMARK   69  A    between atoms: _178  and  _179
REMARK   70  A    between atoms: _178  and  _181
REMARK   71  A    between atoms: _181  and  _182
REMARK   72  A    between atoms: _187  and  _188
REMARK   73  A    between atoms: _190  and  _192
REMARK   74  A    between atoms: _192  and  _193
REMARK   75  A    between atoms: _192  and  _195
REMARK   76  A    between atoms: _195  and  _196
REMARK   77  A    between atoms: _198  and  _200
REMARK   78  A    between atoms: _200  and  _201
REMARK   79  A    between atoms: _200  and  _203
REMARK   80  A    between atoms: _203  and  _204
REMARK   81  A    between atoms: _207  and  _209
REMARK   82  A    between atoms: _209  and  _210
REMARK   83  A    between atoms: _212  and  _214
REMARK   84  A    between atoms: _214  and  _215
REMARK   85  A    between atoms: _214  and  _217
REMARK   86  A    between atoms: _221  and  _222
REMARK   87  A    between atoms: _227  and  _229
REMARK   88  A    between atoms: _229  and  _230
REMARK   89  A    between atoms: _233  and  _235
REMARK   90  A    between atoms: _235  and  _236
REMARK   91  A    between atoms: _235  and  _238
REMARK   92  A    between atoms: _238  and  _239
REMARK   93  A    between atoms: _243  and  _244
REMARK   94  A    between atoms: _249  and  _251
REMARK   95  A    between atoms: _251  and  _252
REMARK   96  A    between atoms: _251  and  _254
REMARK   97  A    between atoms: _254  and  _255
REMARK   98  A    between atoms: _261  and  _263
REMARK   99  A    between atoms: _263  and  _264
REMARK  100  A    between atoms: _263  and  _266
REMARK  101  A    between atoms: _266  and  _267
REMARK  102  A    between atoms: _267  and  _268
REMARK  103  A    between atoms: _270  and  _272
REMARK  104  A    between atoms: _272  and  _273
REMARK  105  A    between atoms: _272  and  _275
REMARK  106  A    between atoms: _275  and  _276
REMARK  107  A    between atoms: _279  and  _281
REMARK  108  A    between atoms: _281  and  _282
REMARK  109  A    between atoms: _285  and  _287
REMARK  110  A    between atoms: _287  and  _288
REMARK  111  A    between atoms: _287  and  _290
REMARK  112  A    between atoms: _290  and  _291
REMARK  113  A    between atoms: _291  and  _292
REMARK  114  A    between atoms: _295  and  _297
REMARK  115  A    between atoms: _297  and  _298
REMARK  116  A    between atoms: _297  and  _300
REMARK  117  A    between atoms: _300  and  _301
REMARK  118  A    between atoms: _307  and  _309
REMARK  119  A    between atoms: _309  and  _310
REMARK  120  A    between atoms: _312  and  _314
REMARK  121  A    between atoms: _314  and  _315
REMARK  122  A    between atoms: _314  and  _317
REMARK  123  A    between atoms: _320  and  _322
REMARK  124  A    between atoms: _322  and  _323
REMARK  125  A    between atoms: _322  and  _325
REMARK  126  A    between atoms: _328  and  _330
REMARK  127  A    between atoms: _330  and  _331
REMARK  128  A    between atoms: _333  and  _335
REMARK  129  A    between atoms: _335  and  _336
REMARK  130  A    between atoms: _335  and  _338
REMARK  131  A    between atoms: _338  and  _339
REMARK  132  A    between atoms: _339  and  _340
REMARK  133  A    between atoms: _342  and  _344
REMARK  134  A    between atoms: _344  and  _345
REMARK  135  A    between atoms: _344  and  _347
REMARK  136  A    between atoms: _347  and  _348
REMARK  137  A    between atoms: _353  and  _354
REMARK  138  A    between atoms: _356  and  _358
REMARK  139  A    between atoms: _358  and  _359
REMARK  140  A    between atoms: _358  and  _361
REMARK  141  A    between atoms: _361  and  _362
REMARK  142  A    between atoms: _365  and  _367
REMARK  143  A    between atoms: _367  and  _368
REMARK  144  A    between atoms: _367  and  _370
REMARK  145  A    between atoms: _373  and  _375
REMARK  146  A    between atoms: _375  and  _376
REMARK  147  A    between atoms: _375  and  _378
REMARK  148  A    between atoms: _378  and  _379
REMARK  149  A    between atoms: _382  and  _384
REMARK  150  A    between atoms: _384  and  _385
REMARK  151  A    between atoms: _384  and  _387
REMARK  152  A    between atoms: _387  and  _388
REMARK  153  A    between atoms: _391  and  _393
REMARK  154  A    between atoms: _393  and  _394
REMARK  155  A    between atoms: _396  and  _398
REMARK  156  A    between atoms: _398  and  _399
REMARK  157  A    between atoms: _402  and  _404
REMARK  158  A    between atoms: _404  and  _405
REMARK  159  A    between atoms: _404  and  _407
REMARK  160  A    between atoms: _407  and  _408
REMARK  161  A    between atoms: _410  and  _412
REMARK  162  A    between atoms: _412  and  _413
REMARK  163  A    between atoms: _412  and  _415
REMARK  164  A    between atoms: _415  and  _416
REMARK  165  A    between atoms: _421  and  _422
REMARK  166  A    between atoms: _424  and  _426
REMARK  167  A    between atoms: _426  and  _427
REMARK  168  A    between atoms: _426  and  _429
REMARK  169  A    between atoms: _429  and  _430
REMARK  170  A    between atoms: _433  and  _435
REMARK  171  A    between atoms: _435  and  _436
REMARK  172  A    between atoms: _435  and  _438
REMARK  173  A    between atoms: _438  and  _439
REMARK  174  A    between atoms: _441  and  _443
REMARK  175  A    between atoms: _443  and  _444
REMARK  176  A    between atoms: _446  and  _448
REMARK  177  A    between atoms: _448  and  _449
REMARK  178  A    between atoms: _448  and  _451
REMARK  179  A    between atoms: _451  and  _452
REMARK  180  A    between atoms: _457  and  _459
REMARK  181  A    between atoms: _459  and  _460
REMARK  182  A    between atoms: _463  and  _465
REMARK  183  A    between atoms: _465  and  _466
REMARK  184  A    between atoms: _465  and  _468
REMARK  185  A    between atoms: _468  and  _469
REMARK  186  A    between atoms: _469  and  _470
REMARK  187  A    between atoms: _472  and  _474
REMARK  188  A    between atoms: _474  and  _475
REMARK  189  A    between atoms: _474  and  _477
REMARK  190  A    between atoms: _477  and  _478
REMARK  191  A    between atoms: _481  and  _483
REMARK  192  A    between atoms: _483  and  _484
REMARK  193  A    between atoms: _483  and  _486
REMARK  194  A    between atoms: _486  and  _487
REMARK  195  A    between atoms: _490  and  _492
REMARK  196  A    between atoms: _492  and  _493
REMARK  197  A    between atoms: _496  and  _498
REMARK  198  A    between atoms: _498  and  _499
REMARK                            x       y       z     vdW  Elec       q    Type
REMARK                         _______ _______ _______ _____ _____    ______ ____
ROOT
ATOM      1  CA  TYR A   3      33.543  56.419  37.540  0.00  0.00    +0.153 C 
ENDROOT
BRANCH   1   2
ATOM      2  C   TYR A   3      34.977  56.722  37.220  0.00  0.00    +0.241 C 
ATOM      3  N   SER A   4      35.414  57.953  37.552  0.00  0.00    -0.295 N 
ATOM      4  H   SER A   4      34.720  58.632  37.925  0.00  0.00    +0.150 HD
ATOM      5  O   TYR A   3      35.714  55.823  36.798  0.00  0.00    -0.273 OA
BRANCH   3   6
ATOM      6  CA  SER A   4      36.805  58.395  37.421  0.00  0.00    +0.178 C 
BRANCH   6   7
ATOM      7  C   SER A   4      37.732  57.544  38.294  0.00  0.00    +0.243 C 
ATOM      8  N   THR A   5      37.224  57.067  39.446  0.00  0.00    -0.295 N 
ATOM      9  H   THR A   5      36.237  57.287  39.687  0.00  0.00    +0.150 HD
ATOM     10  O   SER A   4      38.897  57.366  37.957  0.00  0.00    -0.273 OA
BRANCH   8  11
ATOM     11  CA  THR A   5      38.013  56.247  40.375  0.00  0.00    +0.176 C 
BRANCH  11  12
ATOM     12  C   THR A   5      38.009  54.764  40.014  0.00  0.00    +0.243 C 
ATOM     13  O   THR A   5      38.752  53.981  40.602  0.00  0.00    -0.273 OA
ATOM     14  N   GLY A   6      37.147  54.386  39.099  0.00  0.00    -0.296 N 
ATOM     15  H   GLY A   6      36.541  55.104  38.653  0.00  0.00    +0.150 HD
BRANCH  14  16
ATOM     16  CA  GLY A   6      37.011  52.997  38.687  0.00  0.00    +0.163 C 
BRANCH  16  17
ATOM     17  C   GLY A   6      35.570  52.582  38.478  0.00  0.00    +0.229 C 
ATOM     18  O   GLY A   6      34.682  53.414  38.539  0.00  0.00    -0.286 OA
ENDBRANCH  16  17
ENDBRANCH  14  16
ENDBRANCH  11  12
BRANCH  11  19
ATOM     19  CB  THR A   5      37.526  56.428  41.841  0.00  0.00    +0.137 C 
ATOM     20  CG2 THR A   5      37.792  57.787  42.381  0.00  0.00    +0.034 C 
BRANCH  19  21
ATOM     21  OG1 THR A   5      36.150  56.089  41.923  0.00  0.00    -0.382 OA
ATOM     22  HG1 THR A   5      36.026  55.147  41.646  0.00  0.00    +0.210 HD
ENDBRANCH  19  21
ENDBRANCH  11  19
ENDBRANCH   8  11
ENDBRANCH   6   7
BRANCH   6  23
ATOM     23  CB  SER A   4      36.940  59.864  37.823  0.00  0.00    +0.166 C 
BRANCH  23  24
ATOM     24  OG  SER A   4      36.062  60.650  37.035  0.00  0.00    -0.380 OA
ATOM     25  H   SER A   4      36.149  61.601  37.295  0.00  0.00    +0.211 HD
ENDBRANCH  23  24
ENDBRANCH   6  23
ENDBRANCH   3   6
ENDBRANCH   1   2
BRANCH   1  27
ATOM     26  C   ARG A   2      32.299  55.049  35.967  0.00  0.00    +0.241 C 
ATOM     27  N   TYR A   3      33.172  55.138  36.960  0.00  0.00    -0.297 N 
ATOM     28  H   TYR A   3      33.603  54.269  37.334  0.00  0.00    +0.150 HD
ATOM     29  O   ARG A   2      31.775  56.028  35.459  0.00  0.00    -0.273 OA
BRANCH  26  30
ATOM     30  CA  ARG A   2      31.978  53.659  35.475  0.00  0.00    +0.149 C 
BRANCH  30  33
ATOM     31  C   LEU A   1      30.278  52.651  36.924  0.00  0.00    +0.238 C 
ATOM     32  O   LEU A   1      31.105  52.174  37.703  0.00  0.00    -0.274 OA
ATOM     33  N   ARG A   2      30.610  53.360  35.844  0.00  0.00    -0.297 N 
ATOM     34  H   ARG A   2      29.846  53.717  35.235  0.00  0.00    +0.150 HD
BRANCH  31  35
ATOM     35  CA  LEU A   1      28.809  52.427  37.117  0.00  0.00    +0.145 C 
BRANCH  35  36
ATOM     36  N   LEU A   1      28.534  51.009  36.870  0.00  0.00    -0.238 NA
ATOM     37  H   LEU A   1      28.931  50.287  37.504  0.00  0.00    +0.142 HD
ENDBRANCH  35  36
BRANCH  35  38
ATOM     38  CB  LEU A   1      28.336  52.885  38.506  0.00  0.00    +0.026 C 
BRANCH  38  39
ATOM     39  CG  LEU A   1      26.915  52.469  38.881  0.00  0.00    +0.002 C 
ATOM     40  CD2 LEU A   1      26.732  52.422  40.377  0.00  0.00    +0.000 C 
ATOM     41  CD1 LEU A   1      25.881  53.380  38.247  0.00  0.00    +0.000 C 
ENDBRANCH  38  39
ENDBRANCH  35  38
ENDBRANCH  31  35
ENDBRANCH  30  33
BRANCH  30  42
ATOM     42  CB  ARG A   2      32.185  53.514  33.951  0.00  0.00    +0.033 C 
BRANCH  42  43
ATOM     43  CG  ARG A   2      32.200  52.065  33.482  0.00  0.00    +0.045 C 
BRANCH  43  44
ATOM     44  CD  ARG A   2      32.335  51.969  31.971  0.00  0.00    +0.174 C 
BRANCH  44  45
ATOM     45  NE  ARG A   2      31.886  50.675  31.452  0.00  0.00    -0.265 N 
ATOM     46  HE  ARG A   2      32.602  49.931  31.327  0.00  0.00    +0.259 HD
ATOM     47  CZ  ARG A   2      30.628  50.383  31.129  0.00  0.00    +0.342 C 
ATOM     48  NH2 ARG A   2      29.664  51.277  31.305  0.00  0.00    -0.292 N 
ATOM     49 HH21 ARG A   2      29.889  52.213  31.698  0.00  0.00    +0.255 HD
ATOM     50 HH22 ARG A   2      28.684  51.042  31.050  0.00  0.00    +0.255 HD
ATOM     51  NH1 ARG A   2      30.323  49.187  30.643  0.00  0.00    -0.292 N 
ATOM     52 HH11 ARG A   2      31.068  48.473  30.513  0.00  0.00    +0.255 HD
ATOM     53 HH12 ARG A   2      29.339  48.963  30.392  0.00  0.00    +0.255 HD
ENDBRANCH  44  45
ENDBRANCH  43  44
ENDBRANCH  42  43
ENDBRANCH  30  42
ENDBRANCH  26  30
ENDBRANCH   1  27
BRANCH   1  54
ATOM     54  CB  TYR A   3      33.412  56.335  39.073  0.00  0.00    +0.055 C 
BRANCH  54  55
ATOM     55  CG  TYR A   3      32.047  55.986  39.625  0.00  0.00    -0.020 A 
ATOM     56  CD2 TYR A   3      31.901  54.981  40.583  0.00  0.00    -0.001 A 
ATOM     57  CE2 TYR A   3      30.666  54.704  41.161  0.00  0.00    +0.036 A 
ATOM     58  CZ  TYR A   3      29.580  55.494  40.853  0.00  0.00    +0.134 A 
ATOM     59  CE1 TYR A   3      29.710  56.528  39.938  0.00  0.00    +0.036 A 
ATOM     60  CD1 TYR A   3      30.944  56.786  39.358  0.00  0.00    -0.001 A 
BRANCH  58  61
ATOM     61  OH  TYR A   3      28.371  55.263  41.461  0.00  0.00    -0.506 OA
ATOM     62  HH  TYR A   3      27.705  55.916  41.128  0.00  0.00    +0.292 HD
ENDBRANCH  58  61
ENDBRANCH  54  55
ENDBRANCH   1  54
TORSDOF 25
REMARK  Name = ../refined-set-2016/4s1g/4s1g_pocket.pdb
REMARK  198 active torsions:
REMARK  status: ('A' for Active; 'I' for Inactive)
REMARK    1  A    between atoms: _1  and  _3
REMARK    2  A    between atoms: _3  and  _4
REMARK    3  A    between atoms: _3  and  _6
REMARK    4  A    between atoms: _6  and  _7
REMARK    5  A    between atoms: _12  and  _13
REMARK    6  A    between atoms: _15  and  _17
REMARK    7  A    between atoms: _17  and  _18
REMARK    8  A    between atoms: _17  and  _20
REMARK    9  A    between atoms: _20  and  _21
REMARK   10  A    between atoms: _24  and  _26
REMARK   11  A    between atoms: _26  and  _27
REMARK   12  A    between atoms: _26  and  _29
REMARK   13  A    between atoms: _29  and  _30
REMARK   14  A    between atoms: _30  and  _31
REMARK   15  A    between atoms: _36  and  _38
REMARK   16  A    between atoms: _38  and  _39
REMARK   17  A    between atoms: _38  and  _41
REMARK   18  A    between atoms: _41  and  _42
REMARK   19  A    between atoms: _47  and  _48
REMARK   20  A    between atoms: _50  and  _52
REMARK   21  A    between atoms: _52  and  _53
REMARK   22  A    between atoms: _52  and  _55
REMARK   23  A    between atoms: _55  and  _56
REMARK   24  A    between atoms: _61  and  _62
REMARK   25  A    between atoms: _64  and  _66
REMARK   26  A    between atoms: _66  and  _67
REMARK   27  A    between atoms: _66  and  _69
REMARK   28  A    between atoms: _72  and  _74
REMARK   29  A    between atoms: _74  and  _75
REMARK   30  A    between atoms: _74  and  _77
REMARK   31  A    between atoms: _77  and  _78
REMARK   32  A    between atoms: _84  and  _86
REMARK   33  A    between atoms: _86  and  _87
REMARK   34  A    between atoms: _86  and  _89
REMARK   35  A    between atoms: _89  and  _90
REMARK   36  A    between atoms: _93  and  _95
REMARK   37  A    between atoms: _95  and  _96
REMARK   38  A    between atoms: _95  and  _98
REMARK   39  A    between atoms: _98  and  _99
REMARK   40  A    between atoms: _102  and  _104
REMARK   41  A    between atoms: _104  and  _105
REMARK   42  A    between atoms: _107  and  _109
REMARK   43  A    between atoms: _109  and  _110
REMARK   44  A    between atoms: _109  and  _112
REMARK   45  A    between atoms: _112  and  _113
REMARK   46  A    between atoms: _115  and  _117
REMARK   47  A    between atoms: _117  and  _118
REMARK   48  A    between atoms: _117  and  _120
REMARK   49  A    between atoms: _120  and  _121
REMARK   50  A    between atoms: _123  and  _125
REMARK   51  A    between atoms: _125  and  _126
REMARK   52  A    between atoms: _125  and  _128
REMARK   53  A    between atoms: _128  and  _129
REMARK   54  A    between atoms: _134  and  _136
REMARK   55  A    between atoms: _136  and  _137
REMARK   56  A    between atoms: _136  and  _139
REMARK   57  A    between atoms: _139  and  _140
REMARK   58  A    between atoms: _150  and  _152
REMARK   59  A    between atoms: _152  and  _153
REMARK   60  A    between atoms: _152  and  _155
REMARK   61  A    between atoms: _155  and  _156
REMARK   62  A    between atoms: _159  and  _161
REMARK   63  A    between atoms: _161  and  _162
REMARK   64  A    between atoms: _161  and  _164
REMARK   65  A    between atoms: _164  and  _165
REMARK   66  A    between atoms: _165  and  _166
REMARK   67  A    between atoms: _166  and  _167
REMARK   68  A    between atoms: _176  and  _178
REMARK   69  A    between atoms: _178  and  _179
REMARK   70  A    between atoms: _178  and  _181
REMARK   71  A    between atoms: _181  and  _182
REMARK   72  A    between atoms: _187  and  _188
REMARK   73  A    between atoms: _190  and  _192
REMARK   74  A    between atoms: _192  and  _193
REMARK   75  A    between atoms: _192  and  _195
REMARK   76  A    between atoms: _195  and  _196
REMARK   77  A    between atoms: _198  and  _200
REMARK   78  A    between atoms: _200  and  _201
REMARK   79  A    between atoms: _200  and  _203
REMARK   80  A    between atoms: _203  and  _204
REMARK   81  A    between atoms: _207  and  _209
REMARK   82  A    between atoms: _209  and  _210
REMARK   83  A    between atoms: _212  and  _214
REMARK   84  A    between atoms: _214  and  _215
REMARK   85  A    between atoms: _214  and  _217
REMARK   86  A    between atoms: _221  and  _222
REMARK   87  A    between atoms: _227  and  _229
REMARK   88  A    between atoms: _229  and  _230
REMARK   89  A    between atoms: _233  and  _235
REMARK   90  A    between atoms: _235  and  _236
REMARK   91  A    between atoms: _235  and  _238
REMARK   92  A    between atoms: _238  and  _239
REMARK   93  A    between atoms: _243  and  _244
REMARK   94  A    between atoms: _249  and  _251
REMARK   95  A    between atoms: _251  and  _252
REMARK   96  A    between atoms: _251  and  _254
REMARK   97  A    between atoms: _254  and  _255
REMARK   98  A    between atoms: _261  and  _263
REMARK   99  A    between atoms: _263  and  _264
REMARK  100  A    between atoms: _263  and  _266
REMARK  101  A    between atoms: _266  and  _267
REMARK  102  A    between atoms: _267  and  _268
REMARK  103  A    between atoms: _270  and  _272
REMARK  104  A    between atoms: _272  and  _273
REMARK  105  A    between atoms: _272  and  _275
REMARK  106  A    between atoms: _275  and  _276
REMARK  107  A    between atoms: _279  and  _281
REMARK  108  A    between atoms: _281  and  _282
REMARK  109  A    between atoms: _285  and  _287
REMARK  110  A    between atoms: _287  and  _288
REMARK  111  A    between atoms: _287  and  _290
REMARK  112  A    between atoms: _290  and  _291
REMARK  113  A    between atoms: _291  and  _292
REMARK  114  A    between atoms: _295  and  _297
REMARK  115  A    between atoms: _297  and  _298
REMARK  116  A    between atoms: _297  and  _300
REMARK  117  A    between atoms: _300  and  _301
REMARK  118  A    between atoms: _307  and  _309
REMARK  119  A    between atoms: _309  and  _310
REMARK  120  A    between atoms: _312  and  _314
REMARK  121  A    between atoms: _314  and  _315
REMARK  122  A    between atoms: _314  and  _317
REMARK  123  A    between atoms: _320  and  _322
REMARK  124  A    between atoms: _322  and  _323
REMARK  125  A    between atoms: _322  and  _325
REMARK  126  A    between atoms: _328  and  _330
REMARK  127  A    between atoms: _330  and  _331
REMARK  128  A    between atoms: _333  and  _335
REMARK  129  A    between atoms: _335  and  _336
REMARK  130  A    between atoms: _335  and  _338
REMARK  131  A    between atoms: _338  and  _339
REMARK  132  A    between atoms: _339  and  _340
REMARK  133  A    between atoms: _342  and  _344
REMARK  134  A    between atoms: _344  and  _345
REMARK  135  A    between atoms: _344  and  _347
REMARK  136  A    between atoms: _347  and  _348
REMARK  137  A    between atoms: _353  and  _354
REMARK  138  A    between atoms: _356  and  _358
REMARK  139  A    between atoms: _358  and  _359
REMARK  140  A    between atoms: _358  and  _361
REMARK  141  A    between atoms: _361  and  _362
REMARK  142  A    between atoms: _365  and  _367
REMARK  143  A    between atoms: _367  and  _368
REMARK  144  A    between atoms: _367  and  _370
REMARK  145  A    between atoms: _373  and  _375
REMARK  146  A    between atoms: _375  and  _376
REMARK  147  A    between atoms: _375  and  _378
REMARK  148  A    between atoms: _378  and  _379
REMARK  149  A    between atoms: _382  and  _384
REMARK  150  A    between atoms: _384  and  _385
REMARK  151  A    between atoms: _384  and  _387
REMARK  152  A    between atoms: _387  and  _388
REMARK  153  A    between atoms: _391  and  _393
REMARK  154  A    between atoms: _393  and  _394
REMARK  155  A    between atoms: _396  and  _398
REMARK  156  A    between atoms: _398  and  _399
REMARK  157  A    between atoms: _402  and  _404
REMARK  158  A    between atoms: _404  and  _405
REMARK  159  A    between atoms: _404  and  _407
REMARK  160  A    between atoms: _407  and  _408
REMARK  161  A    between atoms: _410  and  _412
REMARK  162  A    between atoms: _412  and  _413
REMARK  163  A    between atoms: _412  and  _415
REMARK  164  A    between atoms: _415  and  _416
REMARK  165  A    between atoms: _421  and  _422
REMARK  166  A    between atoms: _424  and  _426
REMARK  167  A    between atoms: _426  and  _427
REMARK  168  A    between atoms: _426  and  _429
REMARK  169  A    between atoms: _429  and  _430
REMARK  170  A    between atoms: _433  and  _435
REMARK  171  A    between atoms: _435  and  _436
REMARK  172  A    between atoms: _435  and  _438
REMARK  173  A    between atoms: _438  and  _439
REMARK  174  A    between atoms: _441  and  _443
REMARK  175  A    between atoms: _443  and  _444
REMARK  176  A    between atoms: _446  and  _448
REMARK  177  A    between atoms: _448  and  _449
REMARK  178  A    between atoms: _448  and  _451
REMARK  179  A    between atoms: _451  and  _452
REMARK  180  A    between atoms: _457  and  _459
REMARK  181  A    between atoms: _459  and  _460
REMARK  182  A    between atoms: _463  and  _465
REMARK  183  A    between atoms: _465  and  _466
REMARK  184  A    between atoms: _465  and  _468
REMARK  185  A    between atoms: _468  and  _469
REMARK  186  A    between atoms: _469  and  _470
REMARK  187  A    between atoms: _472  and  _474
REMARK  188  A    between atoms: _474  and  _475
REMARK  189  A    between atoms: _474  and  _477
REMARK  190  A    between atoms: _477  and  _478
REMARK  191  A    between atoms: _481  and  _483
REMARK  192  A    between atoms: _483  and  _484
REMARK  193  A    between atoms: _483  and  _486
REMARK  194  A    between atoms: _486  and  _487
REMARK  195  A    between atoms: _490  and  _492
REMARK  196  A    between atoms: _492  and  _493
REMARK  197  A    between atoms: _496  and  _498
REMARK  198  A    between atoms: _498  and  _499
REMARK                            x       y       z     vdW  Elec       q    Type
REMARK                         _______ _______ _______ _____ _____    ______ ____
ROOT
ATOM      1  CA  VAL A   1      31.508  49.037  40.304  0.00  0.00    +0.133 C 
ENDROOT
BRANCH   1   2
ATOM      2  CB  VAL A   1      31.038  49.573  41.682  0.00  0.00    +0.023 C 
ATOM      3  CG2 VAL A   1      32.220  50.039  42.526  0.00  0.00    +0.002 C 
ATOM      4  CG1 VAL A   1      29.959  50.657  41.558  0.00  0.00    +0.002 C 
ENDBRANCH   1   2
BRANCH   1   5
ATOM      5  N   VAL A   1      32.214  49.952  39.413  0.00  0.00    -0.239 NA
ATOM      6  H   VAL A   1      31.651  50.679  38.927  0.00  0.00    +0.142 HD
ENDBRANCH   1   5
BRANCH   1   7
ATOM      7  C   VAL A   1      30.364  48.511  39.489  0.00  0.00    +0.224 C 
ATOM      8  O   VAL A   1      29.840  49.215  38.618  0.00  0.00    -0.287 OA
ENDBRANCH   1   7
TORSDOF 3
REMARK  Name = ../refined-set-2016/4s1g/4s1g_pocket.pdb
REMARK  198 active torsions:
REMARK  status: ('A' for Active; 'I' for Inactive)
REMARK    1  A    between atoms: _1  and  _3
REMARK    2  A    between atoms: _3  and  _4
REMARK    3  A    between atoms: _3  and  _6
REMARK    4  A    between atoms: _6  and  _7
REMARK    5  A    between atoms: _12  and  _13
REMARK    6  A    between atoms: _15  and  _17
REMARK    7  A    between atoms: _17  and  _18
REMARK    8  A    between atoms: _17  and  _20
REMARK    9  A    between atoms: _20  and  _21
REMARK   10  A    between atoms: _24  and  _26
REMARK   11  A    between atoms: _26  and  _27
REMARK   12  A    between atoms: _26  and  _29
REMARK   13  A    between atoms: _29  and  _30
REMARK   14  A    between atoms: _30  and  _31
REMARK   15  A    between atoms: _36  and  _38
REMARK   16  A    between atoms: _38  and  _39
REMARK   17  A    between atoms: _38  and  _41
REMARK   18  A    between atoms: _41  and  _42
REMARK   19  A    between atoms: _47  and  _48
REMARK   20  A    between atoms: _50  and  _52
REMARK   21  A    between atoms: _52  and  _53
REMARK   22  A    between atoms: _52  and  _55
REMARK   23  A    between atoms: _55  and  _56
REMARK   24  A    between atoms: _61  and  _62
REMARK   25  A    between atoms: _64  and  _66
REMARK   26  A    between atoms: _66  and  _67
REMARK   27  A    between atoms: _66  and  _69
REMARK   28  A    between atoms: _72  and  _74
REMARK   29  A    between atoms: _74  and  _75
REMARK   30  A    between atoms: _74  and  _77
REMARK   31  A    between atoms: _77  and  _78
REMARK   32  A    between atoms: _84  and  _86
REMARK   33  A    between atoms: _86  and  _87
REMARK   34  A    between atoms: _86  and  _89
REMARK   35  A    between atoms: _89  and  _90
REMARK   36  A    between atoms: _93  and  _95
REMARK   37  A    between atoms: _95  and  _96
REMARK   38  A    between atoms: _95  and  _98
REMARK   39  A    between atoms: _98  and  _99
REMARK   40  A    between atoms: _102  and  _104
REMARK   41  A    between atoms: _104  and  _105
REMARK   42  A    between atoms: _107  and  _109
REMARK   43  A    between atoms: _109  and  _110
REMARK   44  A    between atoms: _109  and  _112
REMARK   45  A    between atoms: _112  and  _113
REMARK   46  A    between atoms: _115  and  _117
REMARK   47  A    between atoms: _117  and  _118
REMARK   48  A    between atoms: _117  and  _120
REMARK   49  A    between atoms: _120  and  _121
REMARK   50  A    between atoms: _123  and  _125
REMARK   51  A    between atoms: _125  and  _126
REMARK   52  A    between atoms: _125  and  _128
REMARK   53  A    between atoms: _128  and  _129
REMARK   54  A    between atoms: _134  and  _136
REMARK   55  A    between atoms: _136  and  _137
REMARK   56  A    between atoms: _136  and  _139
REMARK   57  A    between atoms: _139  and  _140
REMARK   58  A    between atoms: _150  and  _152
REMARK   59  A    between atoms: _152  and  _153
REMARK   60  A    between atoms: _152  and  _155
REMARK   61  A    between atoms: _155  and  _156
REMARK   62  A    between atoms: _159  and  _161
REMARK   63  A    between atoms: _161  and  _162
REMARK   64  A    between atoms: _161  and  _164
REMARK   65  A    between atoms: _164  and  _165
REMARK   66  A    between atoms: _165  and  _166
REMARK   67  A    between atoms: _166  and  _167
REMARK   68  A    between atoms: _176  and  _178
REMARK   69  A    between atoms: _178  and  _179
REMARK   70  A    between atoms: _178  and  _181
REMARK   71  A    between atoms: _181  and  _182
REMARK   72  A    between atoms: _187  and  _188
REMARK   73  A    between atoms: _190  and  _192
REMARK   74  A    between atoms: _192  and  _193
REMARK   75  A    between atoms: _192  and  _195
REMARK   76  A    between atoms: _195  and  _196
REMARK   77  A    between atoms: _198  and  _200
REMARK   78  A    between atoms: _200  and  _201
REMARK   79  A    between atoms: _200  and  _203
REMARK   80  A    between atoms: _203  and  _204
REMARK   81  A    between atoms: _207  and  _209
REMARK   82  A    between atoms: _209  and  _210
REMARK   83  A    between atoms: _212  and  _214
REMARK   84  A    between atoms: _214  and  _215
REMARK   85  A    between atoms: _214  and  _217
REMARK   86  A    between atoms: _221  and  _222
REMARK   87  A    between atoms: _227  and  _229
REMARK   88  A    between atoms: _229  and  _230
REMARK   89  A    between atoms: _233  and  _235
REMARK   90  A    between atoms: _235  and  _236
REMARK   91  A    between atoms: _235  and  _238
REMARK   92  A    between atoms: _238  and  _239
REMARK   93  A    between atoms: _243  and  _244
REMARK   94  A    between atoms: _249  and  _251
REMARK   95  A    between atoms: _251  and  _252
REMARK   96  A    between atoms: _251  and  _254
REMARK   97  A    between atoms: _254  and  _255
REMARK   98  A    between atoms: _261  and  _263
REMARK   99  A    between atoms: _263  and  _264
REMARK  100  A    between atoms: _263  and  _266
REMARK  101  A    between atoms: _266  and  _267
REMARK  102  A    between atoms: _267  and  _268
REMARK  103  A    between atoms: _270  and  _272
REMARK  104  A    between atoms: _272  and  _273
REMARK  105  A    between atoms: _272  and  _275
REMARK  106  A    between atoms: _275  and  _276
REMARK  107  A    between atoms: _279  and  _281
REMARK  108  A    between atoms: _281  and  _282
REMARK  109  A    between atoms: _285  and  _287
REMARK  110  A    between atoms: _287  and  _288
REMARK  111  A    between atoms: _287  and  _290
REMARK  112  A    between atoms: _290  and  _291
REMARK  113  A    between atoms: _291  and  _292
REMARK  114  A    between atoms: _295  and  _297
REMARK  115  A    between atoms: _297  and  _298
REMARK  116  A    between atoms: _297  and  _300
REMARK  117  A    between atoms: _300  and  _301
REMARK  118  A    between atoms: _307  and  _309
REMARK  119  A    between atoms: _309  and  _310
REMARK  120  A    between atoms: _312  and  _314
REMARK  121  A    between atoms: _314  and  _315
REMARK  122  A    between atoms: _314  and  _317
REMARK  123  A    between atoms: _320  and  _322
REMARK  124  A    between atoms: _322  and  _323
REMARK  125  A    between atoms: _322  and  _325
REMARK  126  A    between atoms: _328  and  _330
REMARK  127  A    between atoms: _330  and  _331
REMARK  128  A    between atoms: _333  and  _335
REMARK  129  A    between atoms: _335  and  _336
REMARK  130  A    between atoms: _335  and  _338
REMARK  131  A    between atoms: _338  and  _339
REMARK  132  A    between atoms: _339  and  _340
REMARK  133  A    between atoms: _342  and  _344
REMARK  134  A    between atoms: _344  and  _345
REMARK  135  A    between atoms: _344  and  _347
REMARK  136  A    between atoms: _347  and  _348
REMARK  137  A    between atoms: _353  and  _354
REMARK  138  A    between atoms: _356  and  _358
REMARK  139  A    between atoms: _358  and  _359
REMARK  140  A    between atoms: _358  and  _361
REMARK  141  A    between atoms: _361  and  _362
REMARK  142  A    between atoms: _365  and  _367
REMARK  143  A    between atoms: _367  and  _368
REMARK  144  A    between atoms: _367  and  _370
REMARK  145  A    between atoms: _373  and  _375
REMARK  146  A    between atoms: _375  and  _376
REMARK  147  A    between atoms: _375  and  _378
REMARK  148  A    between atoms: _378  and  _379
REMARK  149  A    between atoms: _382  and  _384
REMARK  150  A    between atoms: _384  and  _385
REMARK  151  A    between atoms: _384  and  _387
REMARK  152  A    between atoms: _387  and  _388
REMARK  153  A    between atoms: _391  and  _393
REMARK  154  A    between atoms: _393  and  _394
REMARK  155  A    between atoms: _396  and  _398
REMARK  156  A    between atoms: _398  and  _399
REMARK  157  A    between atoms: _402  and  _404
REMARK  158  A    between atoms: _404  and  _405
REMARK  159  A    between atoms: _404  and  _407
REMARK  160  A    between atoms: _407  and  _408
REMARK  161  A    between atoms: _410  and  _412
REMARK  162  A    between atoms: _412  and  _413
REMARK  163  A    between atoms: _412  and  _415
REMARK  164  A    between atoms: _415  and  _416
REMARK  165  A    between atoms: _421  and  _422
REMARK  166  A    between atoms: _424  and  _426
REMARK  167  A    between atoms: _426  and  _427
REMARK  168  A    between atoms: _426  and  _429
REMARK  169  A    between atoms: _429  and  _430
REMARK  170  A    between atoms: _433  and  _435
REMARK  171  A    between atoms: _435  and  _436
REMARK  172  A    between atoms: _435  and  _438
REMARK  173  A    between atoms: _438  and  _439
REMARK  174  A    between atoms: _441  and  _443
REMARK  175  A    between atoms: _443  and  _444
REMARK  176  A    between atoms: _446  and  _448
REMARK  177  A    between atoms: _448  and  _449
REMARK  178  A    between atoms: _448  and  _451
REMARK  179  A    between atoms: _451  and  _452
REMARK  180  A    between atoms: _457  and  _459
REMARK  181  A    between atoms: _459  and  _460
REMARK  182  A    between atoms: _463  and  _465
REMARK  183  A    between atoms: _465  and  _466
REMARK  184  A    between atoms: _465  and  _468
REMARK  185  A    between atoms: _468  and  _469
REMARK  186  A    between atoms: _469  and  _470
REMARK  187  A    between atoms: _472  and  _474
REMARK  188  A    between atoms: _474  and  _475
REMARK  189  A    between atoms: _474  and  _477
REMARK  190  A    between atoms: _477  and  _478
REMARK  191  A    between atoms: _481  and  _483
REMARK  192  A    between atoms: _483  and  _484
REMARK  193  A    between atoms: _483  and  _486
REMARK  194  A    between atoms: _486  and  _487
REMARK  195  A    between atoms: _490  and  _492
REMARK  196  A    between atoms: _492  and  _493
REMARK  197  A    between atoms: _496  and  _498
REMARK  198  A    between atoms: _498  and  _499
REMARK                            x       y       z     vdW  Elec       q    Type
REMARK                         _______ _______ _______ _____ _____    ______ ____
ROOT
ATOM      1  CA  MET A   6      39.641  48.930  50.432  0.00  0.00    +0.149 C 
ENDROOT
BRANCH   1   2
ATOM      2  C   MET A   6      40.154  50.142  51.251  0.00  0.00    +0.241 C 
ATOM      3  O   MET A   6      40.419  49.998  52.443  0.00  0.00    -0.273 OA
ATOM      4  N   LEU A   7      40.275  51.323  50.604  0.00  0.00    -0.297 N 
ATOM      5  H   LEU A   7      40.038  51.345  49.592  0.00  0.00    +0.150 HD
BRANCH   4   6
ATOM      6  CA  LEU A   7      40.717  52.577  51.229  0.00  0.00    +0.149 C 
BRANCH   6   7
ATOM      7  C   LEU A   7      39.509  53.388  51.729  0.00  0.00    +0.241 C 
ATOM      8  O   LEU A   7      39.672  54.407  52.408  0.00  0.00    -0.273 OA
ATOM      9  N   ALA A   8      38.295  52.949  51.361  0.00  0.00    -0.297 N 
ATOM     10  H   ALA A   8      38.217  52.079  50.796  0.00  0.00    +0.150 HD
BRANCH   9  11
ATOM     11  CA  ALA A   8      37.090  53.664  51.736  0.00  0.00    +0.149 C 
ATOM     12  CB  ALA A   8      35.985  53.402  50.708  0.00  0.00    +0.031 C 
BRANCH  11  13
ATOM     13  C   ALA A   8      36.611  53.275  53.128  0.00  0.00    +0.241 C 
ATOM     14  N   GLU A   9      36.335  54.273  53.953  0.00  0.00    -0.297 N 
ATOM     15  H   GLU A   9      36.543  55.245  53.646  0.00  0.00    +0.150 HD
ATOM     16  O   ALA A   8      36.434  52.097  53.427  0.00  0.00    -0.273 OA
BRANCH  14  17
ATOM     17  CA  GLU A   9      35.749  54.066  55.280  0.00  0.00    +0.149 C 
BRANCH  17  18
ATOM     18  C   GLU A   9      34.238  53.943  55.155  0.00  0.00    +0.241 C 
ATOM     19  O   GLU A   9      33.595  53.383  56.030  0.00  0.00    -0.273 OA
ATOM     20  N   PHE A  10      33.675  54.465  54.075  0.00  0.00    -0.298 N 
ATOM     21  H   PHE A  10      34.277  54.948  53.378  0.00  0.00    +0.150 HD
BRANCH  20  22
ATOM     22  CA  PHE A  10      32.242  54.384  53.833  0.00  0.00    +0.141 C 
BRANCH  22  23
ATOM     23  C   PHE A  10      31.952  53.085  53.105  0.00  0.00    +0.227 C 
ATOM     24  O   PHE A  10      32.879  52.484  52.541  0.00  0.00    -0.286 OA
ENDBRANCH  22  23
BRANCH  22  25
ATOM     25  CB  PHE A  10      31.788  55.616  53.008  0.00  0.00    +0.054 C 
BRANCH  25  26
ATOM     26  CG  PHE A  10      32.528  55.806  51.695  0.00  0.00    -0.020 A 
ATOM     27  CD2 PHE A  10      33.713  56.526  51.644  0.00  0.00    -0.004 A 
ATOM     28  CE2 PHE A  10      34.388  56.702  50.427  0.00  0.00    -0.000 A 
ATOM     29  CZ  PHE A  10      33.884  56.165  49.265  0.00  0.00    -0.000 A 
ATOM     30  CE1 PHE A  10      32.724  55.434  49.298  0.00  0.00    -0.000 A 
ATOM     31  CD1 PHE A  10      32.039  55.257  50.512  0.00  0.00    -0.004 A 
ENDBRANCH  25  26
ENDBRANCH  22  25
ENDBRANCH  20  22
ENDBRANCH  17  18
BRANCH  17  32
ATOM     32  CB  GLU A   9      36.089  55.228  56.223  0.00  0.00    +0.041 C 
BRANCH  32  33
ATOM     33  CG  GLU A   9      37.485  55.093  56.777  0.00  0.00    +0.116 C 
BRANCH  33  34
ATOM     34  CD  GLU A   9      37.682  53.938  57.744  0.00  0.00    +0.365 C 
ATOM     35  OE2 GLU A   9      36.710  53.566  58.442  0.00  0.00    -0.246 OA
ATOM     36  OE1 GLU A   9      38.815  53.413  57.810  0.00  0.00    -0.246 OA
ENDBRANCH  33  34
ENDBRANCH  32  33
ENDBRANCH  17  32
ENDBRANCH  14  17
ENDBRANCH  11  13
ENDBRANCH   9  11
ENDBRANCH   6   7
BRANCH   6  37
ATOM     37  CB  LEU A   7      41.489  53.445  50.216  0.00  0.00    +0.029 C 
BRANCH  37  38
ATOM     38  CG  LEU A   7      42.695  52.820  49.505  0.00  0.00    +0.002 C 
ATOM     39  CD2 LEU A   7      43.902  52.803  50.422  0.00  0.00    +0.000 C 
ATOM     40  CD1 LEU A   7      43.032  53.599  48.234  0.00  0.00    +0.000 C 
ENDBRANCH  37  38
ENDBRANCH   6  37
ENDBRANCH   4   6
ENDBRANCH   1   2
BRANCH   1  43
ATOM     41  C   PHE A   5      37.837  49.987  49.183  0.00  0.00    +0.241 C 
ATOM     42  O   PHE A   5      37.180  50.101  50.202  0.00  0.00    -0.273 OA
ATOM     43  N   MET A   6      39.043  49.411  49.181  0.00  0.00    -0.297 N 
ATOM     44  H   MET A   6      39.562  49.303  48.286  0.00  0.00    +0.150 HD
BRANCH  41  45
ATOM     45  CA  PHE A   5      37.272  50.603  47.895  0.00  0.00    +0.153 C 
BRANCH  45  48
ATOM     46  C   PRO A   4      39.163  51.767  46.891  0.00  0.00    +0.241 C 
ATOM     47  O   PRO A   4      39.372  52.387  47.931  0.00  0.00    -0.273 OA
ATOM     48  N   PHE A   5      38.243  50.802  46.808  0.00  0.00    -0.297 N 
ATOM     49  H   PHE A   5      38.213  50.187  45.970  0.00  0.00    +0.150 HD
BRANCH  46  52
ATOM     50  C   LEU A   3      40.373  50.415  43.828  0.00  0.00    +0.244 C 
ATOM     51  N   PRO A   4      39.672  51.419  44.390  0.00  0.00    -0.272 N 
ATOM     52  CA  PRO A   4      39.965  52.151  45.634  0.00  0.00    +0.152 C 
ATOM     53  CB  PRO A   4      39.564  53.573  45.230  0.00  0.00    +0.031 C 
ATOM     54  CG  PRO A   4      38.294  53.347  44.395  0.00  0.00    +0.024 C 
ATOM     55  CD  PRO A   4      38.564  52.061  43.636  0.00  0.00    +0.094 C 
ATOM     56  O   LEU A   3      40.023  49.928  42.762  0.00  0.00    -0.273 OA
BRANCH  50  57
ATOM     57  CA  LEU A   3      41.504  49.753  44.596  0.00  0.00    +0.149 C 
BRANCH  57  60
ATOM     58  C   ALA A   2      40.674  47.994  46.109  0.00  0.00    +0.241 C 
ATOM     59  O   ALA A   2      40.745  48.732  47.095  0.00  0.00    -0.273 OA
ATOM     60  N   LEU A   3      41.070  48.382  44.883  0.00  0.00    -0.297 N 
ATOM     61  H   LEU A   3      41.068  47.685  44.111  0.00  0.00    +0.150 HD
BRANCH  58  62
ATOM     62  CA  ALA A   2      40.071  46.592  46.240  0.00  0.00    +0.149 C 
ATOM     63  CB  ALA A   2      41.173  45.549  46.381  0.00  0.00    +0.031 C 
BRANCH  62  66
ATOM     64  C   PRO A   1      38.232  47.038  44.585  0.00  0.00    +0.239 C 
ATOM     65  O   PRO A   1      37.843  48.063  45.141  0.00  0.00    -0.274 OA
ATOM     66  N   ALA A   2      39.241  46.279  45.058  0.00  0.00    -0.297 N 
ATOM     67  H   ALA A   2      39.453  45.398  44.547  0.00  0.00    +0.150 HD
BRANCH  64  69
ATOM     68  N   PRO A   1      36.070  46.636  43.296  0.00  0.00    -0.210 NA
ATOM     69  CA  PRO A   1      37.543  46.537  43.309  0.00  0.00    +0.149 C 
ATOM     70  CB  PRO A   1      37.963  47.387  42.088  0.00  0.00    +0.028 C 
ATOM     71  CG  PRO A   1      36.779  47.313  41.173  0.00  0.00    +0.021 C 
ATOM     72  CD  PRO A   1      35.595  47.343  42.087  0.00  0.00    +0.089 C 
ENDBRANCH  64  69
ENDBRANCH  62  66
ENDBRANCH  58  62
ENDBRANCH  57  60
BRANCH  57  73
ATOM     73  CB  LEU A   3      42.833  49.819  43.832  0.00  0.00    +0.029 C 
BRANCH  73  74
ATOM     74  CG  LEU A   3      44.075  49.768  44.734  0.00  0.00    +0.002 C 
ATOM     75  CD2 LEU A   3      44.298  51.116  45.473  0.00  0.00    +0.000 C 
ATOM     76  CD1 LEU A   3      45.322  49.403  43.920  0.00  0.00    +0.000 C 
ENDBRANCH  73  74
ENDBRANCH  57  73
ENDBRANCH  50  57
ENDBRANCH  46  52
ENDBRANCH  45  48
BRANCH  45  77
ATOM     77  CB  PHE A   5      36.011  49.861  47.394  0.00  0.00    +0.055 C 
BRANCH  77  78
ATOM     78  CG  PHE A   5      35.314  50.740  46.370  0.00  0.00    -0.020 A 
ATOM     79  CD2 PHE A   5      34.643  51.892  46.762  0.00  0.00    -0.004 A 
ATOM     80  CE2 PHE A   5      34.056  52.744  45.814  0.00  0.00    -0.000 A 
ATOM     81  CZ  PHE A   5      34.140  52.445  44.470  0.00  0.00    -0.000 A 
ATOM     82  CE1 PHE A   5      34.808  51.312  44.063  0.00  0.00    -0.000 A 
ATOM     83  CD1 PHE A   5      35.383  50.448  45.011  0.00  0.00    -0.004 A 
ENDBRANCH  77  78
ENDBRANCH  45  77
ENDBRANCH  41  45
ENDBRANCH   1  43
BRANCH   1  84
ATOM     84  CB  MET A   6      40.779  47.918  50.173  0.00  0.00    +0.041 C 
BRANCH  84  85
ATOM     85  CG  MET A   6      40.287  46.491  50.066  0.00  0.00    +0.060 C 
BRANCH  85  86
ATOM     86  SD  MET A   6      39.492  45.916  51.578  0.00  0.00    -0.139 S 
ATOM     87  CE  MET A   6      40.928  45.698  52.665  0.00  0.00    +0.069 C 
ENDBRANCH  85  86
ENDBRANCH  84  85
ENDBRANCH   1  84
TORSDOF 32
REMARK  Name = ../refined-set-2016/4s1g/4s1g_pocket.pdb
REMARK  198 active torsions:
REMARK  status: ('A' for Active; 'I' for Inactive)
REMARK    1  A    between atoms: _1  and  _3
REMARK    2  A    between atoms: _3  and  _4
REMARK    3  A    between atoms: _3  and  _6
REMARK    4  A    between atoms: _6  and  _7
REMARK    5  A    between atoms: _12  and  _13
REMARK    6  A    between atoms: _15  and  _17
REMARK    7  A    between atoms: _17  and  _18
REMARK    8  A    between atoms: _17  and  _20
REMARK    9  A    between atoms: _20  and  _21
REMARK   10  A    between atoms: _24  and  _26
REMARK   11  A    between atoms: _26  and  _27
REMARK   12  A    between atoms: _26  and  _29
REMARK   13  A    between atoms: _29  and  _30
REMARK   14  A    between atoms: _30  and  _31
REMARK   15  A    between atoms: _36  and  _38
REMARK   16  A    between atoms: _38  and  _39
REMARK   17  A    between atoms: _38  and  _41
REMARK   18  A    between atoms: _41  and  _42
REMARK   19  A    between atoms: _47  and  _48
REMARK   20  A    between atoms: _50  and  _52
REMARK   21  A    between atoms: _52  and  _53
REMARK   22  A    between atoms: _52  and  _55
REMARK   23  A    between atoms: _55  and  _56
REMARK   24  A    between atoms: _61  and  _62
REMARK   25  A    between atoms: _64  and  _66
REMARK   26  A    between atoms: _66  and  _67
REMARK   27  A    between atoms: _66  and  _69
REMARK   28  A    between atoms: _72  and  _74
REMARK   29  A    between atoms: _74  and  _75
REMARK   30  A    between atoms: _74  and  _77
REMARK   31  A    between atoms: _77  and  _78
REMARK   32  A    between atoms: _84  and  _86
REMARK   33  A    between atoms: _86  and  _87
REMARK   34  A    between atoms: _86  and  _89
REMARK   35  A    between atoms: _89  and  _90
REMARK   36  A    between atoms: _93  and  _95
REMARK   37  A    between atoms: _95  and  _96
REMARK   38  A    between atoms: _95  and  _98
REMARK   39  A    between atoms: _98  and  _99
REMARK   40  A    between atoms: _102  and  _104
REMARK   41  A    between atoms: _104  and  _105
REMARK   42  A    between atoms: _107  and  _109
REMARK   43  A    between atoms: _109  and  _110
REMARK   44  A    between atoms: _109  and  _112
REMARK   45  A    between atoms: _112  and  _113
REMARK   46  A    between atoms: _115  and  _117
REMARK   47  A    between atoms: _117  and  _118
REMARK   48  A    between atoms: _117  and  _120
REMARK   49  A    between atoms: _120  and  _121
REMARK   50  A    between atoms: _123  and  _125
REMARK   51  A    between atoms: _125  and  _126
REMARK   52  A    between atoms: _125  and  _128
REMARK   53  A    between atoms: _128  and  _129
REMARK   54  A    between atoms: _134  and  _136
REMARK   55  A    between atoms: _136  and  _137
REMARK   56  A    between atoms: _136  and  _139
REMARK   57  A    between atoms: _139  and  _140
REMARK   58  A    between atoms: _150  and  _152
REMARK   59  A    between atoms: _152  and  _153
REMARK   60  A    between atoms: _152  and  _155
REMARK   61  A    between atoms: _155  and  _156
REMARK   62  A    between atoms: _159  and  _161
REMARK   63  A    between atoms: _161  and  _162
REMARK   64  A    between atoms: _161  and  _164
REMARK   65  A    between atoms: _164  and  _165
REMARK   66  A    between atoms: _165  and  _166
REMARK   67  A    between atoms: _166  and  _167
REMARK   68  A    between atoms: _176  and  _178
REMARK   69  A    between atoms: _178  and  _179
REMARK   70  A    between atoms: _178  and  _181
REMARK   71  A    between atoms: _181  and  _182
REMARK   72  A    between atoms: _187  and  _188
REMARK   73  A    between atoms: _190  and  _192
REMARK   74  A    between atoms: _192  and  _193
REMARK   75  A    between atoms: _192  and  _195
REMARK   76  A    between atoms: _195  and  _196
REMARK   77  A    between atoms: _198  and  _200
REMARK   78  A    between atoms: _200  and  _201
REMARK   79  A    between atoms: _200  and  _203
REMARK   80  A    between atoms: _203  and  _204
REMARK   81  A    between atoms: _207  and  _209
REMARK   82  A    between atoms: _209  and  _210
REMARK   83  A    between atoms: _212  and  _214
REMARK   84  A    between atoms: _214  and  _215
REMARK   85  A    between atoms: _214  and  _217
REMARK   86  A    between atoms: _221  and  _222
REMARK   87  A    between atoms: _227  and  _229
REMARK   88  A    between atoms: _229  and  _230
REMARK   89  A    between atoms: _233  and  _235
REMARK   90  A    between atoms: _235  and  _236
REMARK   91  A    between atoms: _235  and  _238
REMARK   92  A    between atoms: _238  and  _239
REMARK   93  A    between atoms: _243  and  _244
REMARK   94  A    between atoms: _249  and  _251
REMARK   95  A    between atoms: _251  and  _252
REMARK   96  A    between atoms: _251  and  _254
REMARK   97  A    between atoms: _254  and  _255
REMARK   98  A    between atoms: _261  and  _263
REMARK   99  A    between atoms: _263  and  _264
REMARK  100  A    between atoms: _263  and  _266
REMARK  101  A    between atoms: _266  and  _267
REMARK  102  A    between atoms: _267  and  _268
REMARK  103  A    between atoms: _270  and  _272
REMARK  104  A    between atoms: _272  and  _273
REMARK  105  A    between atoms: _272  and  _275
REMARK  106  A    between atoms: _275  and  _276
REMARK  107  A    between atoms: _279  and  _281
REMARK  108  A    between atoms: _281  and  _282
REMARK  109  A    between atoms: _285  and  _287
REMARK  110  A    between atoms: _287  and  _288
REMARK  111  A    between atoms: _287  and  _290
REMARK  112  A    between atoms: _290  and  _291
REMARK  113  A    between atoms: _291  and  _292
REMARK  114  A    between atoms: _295  and  _297
REMARK  115  A    between atoms: _297  and  _298
REMARK  116  A    between atoms: _297  and  _300
REMARK  117  A    between atoms: _300  and  _301
REMARK  118  A    between atoms: _307  and  _309
REMARK  119  A    between atoms: _309  and  _310
REMARK  120  A    between atoms: _312  and  _314
REMARK  121  A    between atoms: _314  and  _315
REMARK  122  A    between atoms: _314  and  _317
REMARK  123  A    between atoms: _320  and  _322
REMARK  124  A    between atoms: _322  and  _323
REMARK  125  A    between atoms: _322  and  _325
REMARK  126  A    between atoms: _328  and  _330
REMARK  127  A    between atoms: _330  and  _331
REMARK  128  A    between atoms: _333  and  _335
REMARK  129  A    between atoms: _335  and  _336
REMARK  130  A    between atoms: _335  and  _338
REMARK  131  A    between atoms: _338  and  _339
REMARK  132  A    between atoms: _339  and  _340
REMARK  133  A    between atoms: _342  and  _344
REMARK  134  A    between atoms: _344  and  _345
REMARK  135  A    between atoms: _344  and  _347
REMARK  136  A    between atoms: _347  and  _348
REMARK  137  A    between atoms: _353  and  _354
REMARK  138  A    between atoms: _356  and  _358
REMARK  139  A    between atoms: _358  and  _359
REMARK  140  A    between atoms: _358  and  _361
REMARK  141  A    between atoms: _361  and  _362
REMARK  142  A    between atoms: _365  and  _367
REMARK  143  A    between atoms: _367  and  _368
REMARK  144  A    between atoms: _367  and  _370
REMARK  145  A    between atoms: _373  and  _375
REMARK  146  A    between atoms: _375  and  _376
REMARK  147  A    between atoms: _375  and  _378
REMARK  148  A    between atoms: _378  and  _379
REMARK  149  A    between atoms: _382  and  _384
REMARK  150  A    between atoms: _384  and  _385
REMARK  151  A    between atoms: _384  and  _387
REMARK  152  A    between atoms: _387  and  _388
REMARK  153  A    between atoms: _391  and  _393
REMARK  154  A    between atoms: _393  and  _394
REMARK  155  A    between atoms: _396  and  _398
REMARK  156  A    between atoms: _398  and  _399
REMARK  157  A    between atoms: _402  and  _404
REMARK  158  A    between atoms: _404  and  _405
REMARK  159  A    between atoms: _404  and  _407
REMARK  160  A    between atoms: _407  and  _408
REMARK  161  A    between atoms: _410  and  _412
REMARK  162  A    between atoms: _412  and  _413
REMARK  163  A    between atoms: _412  and  _415
REMARK  164  A    between atoms: _415  and  _416
REMARK  165  A    between atoms: _421  and  _422
REMARK  166  A    between atoms: _424  and  _426
REMARK  167  A    between atoms: _426  and  _427
REMARK  168  A    between atoms: _426  and  _429
REMARK  169  A    between atoms: _429  and  _430
REMARK  170  A    between atoms: _433  and  _435
REMARK  171  A    between atoms: _435  and  _436
REMARK  172  A    between atoms: _435  and  _438
REMARK  173  A    between atoms: _438  and  _439
REMARK  174  A    between atoms: _441  and  _443
REMARK  175  A    between atoms: _443  and  _444
REMARK  176  A    between atoms: _446  and  _448
REMARK  177  A    between atoms: _448  and  _449
REMARK  178  A    between atoms: _448  and  _451
REMARK  179  A    between atoms: _451  and  _452
REMARK  180  A    between atoms: _457  and  _459
REMARK  181  A    between atoms: _459  and  _460
REMARK  182  A    between atoms: _463  and  _465
REMARK  183  A    between atoms: _465  and  _466
REMARK  184  A    between atoms: _465  and  _468
REMARK  185  A    between atoms: _468  and  _469
REMARK  186  A    between atoms: _469  and  _470
REMARK  187  A    between atoms: _472  and  _474
REMARK  188  A    between atoms: _474  and  _475
REMARK  189  A    between atoms: _474  and  _477
REMARK  190  A    between atoms: _477  and  _478
REMARK  191  A    between atoms: _481  and  _483
REMARK  192  A    between atoms: _483  and  _484
REMARK  193  A    between atoms: _483  and  _486
REMARK  194  A    between atoms: _486  and  _487
REMARK  195  A    between atoms: _490  and  _492
REMARK  196  A    between atoms: _492  and  _493
REMARK  197  A    between atoms: _496  and  _498
REMARK  198  A    between atoms: _498  and  _499
REMARK                            x       y       z     vdW  Elec       q    Type
REMARK                         _______ _______ _______ _____ _____    ______ ____
ROOT
ATOM      1  CA  VAL A   3      24.103  58.395  47.622  0.00  0.00    +0.149 C 
ENDROOT
BRANCH   1   3
ATOM      2  C   VAL A   2      25.724  56.572  47.507  0.00  0.00    +0.241 C 
ATOM      3  N   VAL A   3      25.406  57.810  47.869  0.00  0.00    -0.297 N 
ATOM      4  H   VAL A   3      26.125  58.386  48.352  0.00  0.00    +0.150 HD
ATOM      5  O   VAL A   2      24.925  55.783  47.013  0.00  0.00    -0.273 OA
BRANCH   2   6
ATOM      6  CA  VAL A   2      27.186  56.183  47.683  0.00  0.00    +0.148 C 
BRANCH   6   9
ATOM      7  C   GLY A   1      28.184  54.543  49.212  0.00  0.00    +0.240 C 
ATOM      8  O   GLY A   1      28.851  55.394  49.796  0.00  0.00    -0.274 OA
ATOM      9  N   VAL A   2      27.338  54.828  48.216  0.00  0.00    -0.297 N 
ATOM     10  H   VAL A   2      26.768  54.060  47.806  0.00  0.00    +0.150 HD
BRANCH   7  11
ATOM     11  CA  GLY A   1      28.334  53.083  49.529  0.00  0.00    +0.169 C 
BRANCH  11  12
ATOM     12  N   GLY A   1      28.963  52.784  50.806  0.00  0.00    -0.236 NA
ATOM     13  H   GLY A   1      28.774  53.401  51.621  0.00  0.00    +0.142 HD
ENDBRANCH  11  12
ENDBRANCH   7  11
ENDBRANCH   6   9
BRANCH   6  14
ATOM     14  CB  VAL A   2      27.959  56.323  46.317  0.00  0.00    +0.027 C 
ATOM     15  CG2 VAL A   2      29.463  56.072  46.488  0.00  0.00    +0.002 C 
ATOM     16  CG1 VAL A   2      27.711  57.689  45.648  0.00  0.00    +0.002 C 
ENDBRANCH   6  14
ENDBRANCH   2   6
ENDBRANCH   1   3
BRANCH   1  17
ATOM     17  C   VAL A   3      24.326  59.520  46.581  0.00  0.00    +0.241 C 
ATOM     18  O   VAL A   3      24.828  60.590  46.918  0.00  0.00    -0.273 OA
ATOM     19  N   GLY A   4      24.033  59.214  45.315  0.00  0.00    -0.295 N 
ATOM     20  H   GLY A   4      23.710  58.250  45.096  0.00  0.00    +0.150 HD
BRANCH  19  21
ATOM     21  CA  GLY A   4      24.148  60.179  44.225  0.00  0.00    +0.176 C 
BRANCH  21  22
ATOM     22  C   GLY A   4      23.164  61.331  44.391  0.00  0.00    +0.243 C 
ATOM     23  O   GLY A   4      21.966  61.104  44.520  0.00  0.00    -0.273 OA
ATOM     24  N   MET A   5      23.685  62.552  44.468  0.00  0.00    -0.298 N 
ATOM     25  H   MET A   5      24.720  62.624  44.393  0.00  0.00    +0.150 HD
BRANCH  24  26
ATOM     26  CA  MET A   5      22.949  63.805  44.648  0.00  0.00    +0.138 C 
BRANCH  26  27
ATOM     27  C   MET A   5      22.853  64.578  43.306  0.00  0.00    +0.227 C 
ATOM     28  O   MET A   5      22.329  65.686  43.269  0.00  0.00    -0.286 OA
ENDBRANCH  26  27
BRANCH  26  29
ATOM     29  CB  MET A   5      23.582  64.680  45.757  0.00  0.00    +0.039 C 
BRANCH  29  30
ATOM     30  CG  MET A   5      23.492  64.088  47.182  0.00  0.00    +0.060 C 
BRANCH  30  31
ATOM     31  SD  MET A   5      21.847  63.598  47.716  0.00  0.00    -0.139 S 
ATOM     32  CE  MET A   5      21.063  65.260  47.928  0.00  0.00    +0.069 C 
ENDBRANCH  30  31
ENDBRANCH  29  30
ENDBRANCH  26  29
ENDBRANCH  24  26
ENDBRANCH  21  22
ENDBRANCH  19  21
ENDBRANCH   1  17
BRANCH   1  33
ATOM     33  CB  VAL A   3      23.371  58.872  48.906  0.00  0.00    +0.027 C 
ATOM     34  CG2 VAL A   3      22.976  57.683  49.772  0.00  0.00    +0.002 C 
ATOM     35  CG1 VAL A   3      22.136  59.701  48.553  0.00  0.00    +0.002 C 
ENDBRANCH   1  33
TORSDOF 15
REMARK  Name = ../refined-set-2016/4s1g/4s1g_pocket.pdb
REMARK  198 active torsions:
REMARK  status: ('A' for Active; 'I' for Inactive)
REMARK    1  A    between atoms: _1  and  _3
REMARK    2  A    between atoms: _3  and  _4
REMARK    3  A    between atoms: _3  and  _6
REMARK    4  A    between atoms: _6  and  _7
REMARK    5  A    between atoms: _12  and  _13
REMARK    6  A    between atoms: _15  and  _17
REMARK    7  A    between atoms: _17  and  _18
REMARK    8  A    between atoms: _17  and  _20
REMARK    9  A    between atoms: _20  and  _21
REMARK   10  A    between atoms: _24  and  _26
REMARK   11  A    between atoms: _26  and  _27
REMARK   12  A    between atoms: _26  and  _29
REMARK   13  A    between atoms: _29  and  _30
REMARK   14  A    between atoms: _30  and  _31
REMARK   15  A    between atoms: _36  and  _38
REMARK   16  A    between atoms: _38  and  _39
REMARK   17  A    between atoms: _38  and  _41
REMARK   18  A    between atoms: _41  and  _42
REMARK   19  A    between atoms: _47  and  _48
REMARK   20  A    between atoms: _50  and  _52
REMARK   21  A    between atoms: _52  and  _53
REMARK   22  A    between atoms: _52  and  _55
REMARK   23  A    between atoms: _55  and  _56
REMARK   24  A    between atoms: _61  and  _62
REMARK   25  A    between atoms: _64  and  _66
REMARK   26  A    between atoms: _66  and  _67
REMARK   27  A    between atoms: _66  and  _69
REMARK   28  A    between atoms: _72  and  _74
REMARK   29  A    between atoms: _74  and  _75
REMARK   30  A    between atoms: _74  and  _77
REMARK   31  A    between atoms: _77  and  _78
REMARK   32  A    between atoms: _84  and  _86
REMARK   33  A    between atoms: _86  and  _87
REMARK   34  A    between atoms: _86  and  _89
REMARK   35  A    between atoms: _89  and  _90
REMARK   36  A    between atoms: _93  and  _95
REMARK   37  A    between atoms: _95  and  _96
REMARK   38  A    between atoms: _95  and  _98
REMARK   39  A    between atoms: _98  and  _99
REMARK   40  A    between atoms: _102  and  _104
REMARK   41  A    between atoms: _104  and  _105
REMARK   42  A    between atoms: _107  and  _109
REMARK   43  A    between atoms: _109  and  _110
REMARK   44  A    between atoms: _109  and  _112
REMARK   45  A    between atoms: _112  and  _113
REMARK   46  A    between atoms: _115  and  _117
REMARK   47  A    between atoms: _117  and  _118
REMARK   48  A    between atoms: _117  and  _120
REMARK   49  A    between atoms: _120  and  _121
REMARK   50  A    between atoms: _123  and  _125
REMARK   51  A    between atoms: _125  and  _126
REMARK   52  A    between atoms: _125  and  _128
REMARK   53  A    between atoms: _128  and  _129
REMARK   54  A    between atoms: _134  and  _136
REMARK   55  A    between atoms: _136  and  _137
REMARK   56  A    between atoms: _136  and  _139
REMARK   57  A    between atoms: _139  and  _140
REMARK   58  A    between atoms: _150  and  _152
REMARK   59  A    between atoms: _152  and  _153
REMARK   60  A    between atoms: _152  and  _155
REMARK   61  A    between atoms: _155  and  _156
REMARK   62  A    between atoms: _159  and  _161
REMARK   63  A    between atoms: _161  and  _162
REMARK   64  A    between atoms: _161  and  _164
REMARK   65  A    between atoms: _164  and  _165
REMARK   66  A    between atoms: _165  and  _166
REMARK   67  A    between atoms: _166  and  _167
REMARK   68  A    between atoms: _176  and  _178
REMARK   69  A    between atoms: _178  and  _179
REMARK   70  A    between atoms: _178  and  _181
REMARK   71  A    between atoms: _181  and  _182
REMARK   72  A    between atoms: _187  and  _188
REMARK   73  A    between atoms: _190  and  _192
REMARK   74  A    between atoms: _192  and  _193
REMARK   75  A    between atoms: _192  and  _195
REMARK   76  A    between atoms: _195  and  _196
REMARK   77  A    between atoms: _198  and  _200
REMARK   78  A    between atoms: _200  and  _201
REMARK   79  A    between atoms: _200  and  _203
REMARK   80  A    between atoms: _203  and  _204
REMARK   81  A    between atoms: _207  and  _209
REMARK   82  A    between atoms: _209  and  _210
REMARK   83  A    between atoms: _212  and  _214
REMARK   84  A    between atoms: _214  and  _215
REMARK   85  A    between atoms: _214  and  _217
REMARK   86  A    between atoms: _221  and  _222
REMARK   87  A    between atoms: _227  and  _229
REMARK   88  A    between atoms: _229  and  _230
REMARK   89  A    between atoms: _233  and  _235
REMARK   90  A    between atoms: _235  and  _236
REMARK   91  A    between atoms: _235  and  _238
REMARK   92  A    between atoms: _238  and  _239
REMARK   93  A    between atoms: _243  and  _244
REMARK   94  A    between atoms: _249  and  _251
REMARK   95  A    between atoms: _251  and  _252
REMARK   96  A    between atoms: _251  and  _254
REMARK   97  A    between atoms: _254  and  _255
REMARK   98  A    between atoms: _261  and  _263
REMARK   99  A    between atoms: _263  and  _264
REMARK  100  A    between atoms: _263  and  _266
REMARK  101  A    between atoms: _266  and  _267
REMARK  102  A    between atoms: _267  and  _268
REMARK  103  A    between atoms: _270  and  _272
REMARK  104  A    between atoms: _272  and  _273
REMARK  105  A    between atoms: _272  and  _275
REMARK  106  A    between atoms: _275  and  _276
REMARK  107  A    between atoms: _279  and  _281
REMARK  108  A    between atoms: _281  and  _282
REMARK  109  A    between atoms: _285  and  _287
REMARK  110  A    between atoms: _287  and  _288
REMARK  111  A    between atoms: _287  and  _290
REMARK  112  A    between atoms: _290  and  _291
REMARK  113  A    between atoms: _291  and  _292
REMARK  114  A    between atoms: _295  and  _297
REMARK  115  A    between atoms: _297  and  _298
REMARK  116  A    between atoms: _297  and  _300
REMARK  117  A    between atoms: _300  and  _301
REMARK  118  A    between atoms: _307  and  _309
REMARK  119  A    between atoms: _309  and  _310
REMARK  120  A    between atoms: _312  and  _314
REMARK  121  A    between atoms: _314  and  _315
REMARK  122  A    between atoms: _314  and  _317
REMARK  123  A    between atoms: _320  and  _322
REMARK  124  A    between atoms: _322  and  _323
REMARK  125  A    between atoms: _322  and  _325
REMARK  126  A    between atoms: _328  and  _330
REMARK  127  A    between atoms: _330  and  _331
REMARK  128  A    between atoms: _333  and  _335
REMARK  129  A    between atoms: _335  and  _336
REMARK  130  A    between atoms: _335  and  _338
REMARK  131  A    between atoms: _338  and  _339
REMARK  132  A    between atoms: _339  and  _340
REMARK  133  A    between atoms: _342  and  _344
REMARK  134  A    between atoms: _344  and  _345
REMARK  135  A    between atoms: _344  and  _347
REMARK  136  A    between atoms: _347  and  _348
REMARK  137  A    between atoms: _353  and  _354
REMARK  138  A    between atoms: _356  and  _358
REMARK  139  A    between atoms: _358  and  _359
REMARK  140  A    between atoms: _358  and  _361
REMARK  141  A    between atoms: _361  and  _362
REMARK  142  A    between atoms: _365  and  _367
REMARK  143  A    between atoms: _367  and  _368
REMARK  144  A    between atoms: _367  and  _370
REMARK  145  A    between atoms: _373  and  _375
REMARK  146  A    between atoms: _375  and  _376
REMARK  147  A    between atoms: _375  and  _378
REMARK  148  A    between atoms: _378  and  _379
REMARK  149  A    between atoms: _382  and  _384
REMARK  150  A    between atoms: _384  and  _385
REMARK  151  A    between atoms: _384  and  _387
REMARK  152  A    between atoms: _387  and  _388
REMARK  153  A    between atoms: _391  and  _393
REMARK  154  A    between atoms: _393  and  _394
REMARK  155  A    between atoms: _396  and  _398
REMARK  156  A    between atoms: _398  and  _399
REMARK  157  A    between atoms: _402  and  _404
REMARK  158  A    between atoms: _404  and  _405
REMARK  159  A    between atoms: _404  and  _407
REMARK  160  A    between atoms: _407  and  _408
REMARK  161  A    between atoms: _410  and  _412
REMARK  162  A    between atoms: _412  and  _413
REMARK  163  A    between atoms: _412  and  _415
REMARK  164  A    between atoms: _415  and  _416
REMARK  165  A    between atoms: _421  and  _422
REMARK  166  A    between atoms: _424  and  _426
REMARK  167  A    between atoms: _426  and  _427
REMARK  168  A    between atoms: _426  and  _429
REMARK  169  A    between atoms: _429  and  _430
REMARK  170  A    between atoms: _433  and  _435
REMARK  171  A    between atoms: _435  and  _436
REMARK  172  A    between atoms: _435  and  _438
REMARK  173  A    between atoms: _438  and  _439
REMARK  174  A    between atoms: _441  and  _443
REMARK  175  A    between atoms: _443  and  _444
REMARK  176  A    between atoms: _446  and  _448
REMARK  177  A    between atoms: _448  and  _449
REMARK  178  A    between atoms: _448  and  _451
REMARK  179  A    between atoms: _451  and  _452
REMARK  180  A    between atoms: _457  and  _459
REMARK  181  A    between atoms: _459  and  _460
REMARK  182  A    between atoms: _463  and  _465
REMARK  183  A    between atoms: _465  and  _466
REMARK  184  A    between atoms: _465  and  _468
REMARK  185  A    between atoms: _468  and  _469
REMARK  186  A    between atoms: _469  and  _470
REMARK  187  A    between atoms: _472  and  _474
REMARK  188  A    between atoms: _474  and  _475
REMARK  189  A    between atoms: _474  and  _477
REMARK  190  A    between atoms: _477  and  _478
REMARK  191  A    between atoms: _481  and  _483
REMARK  192  A    between atoms: _483  and  _484
REMARK  193  A    between atoms: _483  and  _486
REMARK  194  A    between atoms: _486  and  _487
REMARK  195  A    between atoms: _490  and  _492
REMARK  196  A    between atoms: _492  and  _493
REMARK  197  A    between atoms: _496  and  _498
REMARK  198  A    between atoms: _498  and  _499
REMARK                            x       y       z     vdW  Elec       q    Type
REMARK                         _______ _______ _______ _____ _____    ______ ____
ROOT
ATOM      1  CG  TYR A   1      32.557  68.668  53.343  0.00  0.00    -0.020 A 
ATOM      2  CD2 TYR A   1      31.425  67.960  53.743  0.00  0.00    -0.001 A 
ATOM      3  CE2 TYR A   1      30.846  66.997  52.918  0.00  0.00    +0.036 A 
ATOM      4  CZ  TYR A   1      31.437  66.684  51.704  0.00  0.00    +0.134 A 
ATOM      5  CE1 TYR A   1      32.546  67.393  51.274  0.00  0.00    +0.036 A 
ATOM      6  CD1 TYR A   1      33.104  68.370  52.096  0.00  0.00    -0.001 A 
ENDROOT
BRANCH   4   7
ATOM      7  OH  TYR A   1      30.881  65.721  50.901  0.00  0.00    -0.506 OA
ATOM      8  HH  TYR A   1      31.554  65.020  50.714  0.00  0.00    +0.292 HD
ENDBRANCH   4   7
BRANCH   1   9
ATOM      9  CB  TYR A   1      33.200  69.706  54.253  0.00  0.00    +0.051 C 
BRANCH   9  10
ATOM     10  CA  TYR A   1      32.423  70.053  55.554  0.00  0.00    +0.137 C 
BRANCH  10  11
ATOM     11  N   TYR A   1      31.324  71.002  55.308  0.00  0.00    -0.239 NA
ATOM     12  H   TYR A   1      31.554  71.922  54.881  0.00  0.00    +0.142 HD
ENDBRANCH  10  11
BRANCH  10  13
ATOM     13  C   TYR A   1      33.375  70.729  56.537  0.00  0.00    +0.224 C 
ATOM     14  O   TYR A   1      33.924  71.779  56.222  0.00  0.00    -0.287 OA
ENDBRANCH  10  13
ENDBRANCH   9  10
ENDBRANCH   1   9
TORSDOF 5
REMARK  Name = ../refined-set-2016/4s1g/4s1g_pocket.pdb
REMARK  198 active torsions:
REMARK  status: ('A' for Active; 'I' for Inactive)
REMARK    1  A    between atoms: _1  and  _3
REMARK    2  A    between atoms: _3  and  _4
REMARK    3  A    between atoms: _3  and  _6
REMARK    4  A    between atoms: _6  and  _7
REMARK    5  A    between atoms: _12  and  _13
REMARK    6  A    between atoms: _15  and  _17
REMARK    7  A    between atoms: _17  and  _18
REMARK    8  A    between atoms: _17  and  _20
REMARK    9  A    between atoms: _20  and  _21
REMARK   10  A    between atoms: _24  and  _26
REMARK   11  A    between atoms: _26  and  _27
REMARK   12  A    between atoms: _26  and  _29
REMARK   13  A    between atoms: _29  and  _30
REMARK   14  A    between atoms: _30  and  _31
REMARK   15  A    between atoms: _36  and  _38
REMARK   16  A    between atoms: _38  and  _39
REMARK   17  A    between atoms: _38  and  _41
REMARK   18  A    between atoms: _41  and  _42
REMARK   19  A    between atoms: _47  and  _48
REMARK   20  A    between atoms: _50  and  _52
REMARK   21  A    between atoms: _52  and  _53
REMARK   22  A    between atoms: _52  and  _55
REMARK   23  A    between atoms: _55  and  _56
REMARK   24  A    between atoms: _61  and  _62
REMARK   25  A    between atoms: _64  and  _66
REMARK   26  A    between atoms: _66  and  _67
REMARK   27  A    between atoms: _66  and  _69
REMARK   28  A    between atoms: _72  and  _74
REMARK   29  A    between atoms: _74  and  _75
REMARK   30  A    between atoms: _74  and  _77
REMARK   31  A    between atoms: _77  and  _78
REMARK   32  A    between atoms: _84  and  _86
REMARK   33  A    between atoms: _86  and  _87
REMARK   34  A    between atoms: _86  and  _89
REMARK   35  A    between atoms: _89  and  _90
REMARK   36  A    between atoms: _93  and  _95
REMARK   37  A    between atoms: _95  and  _96
REMARK   38  A    between atoms: _95  and  _98
REMARK   39  A    between atoms: _98  and  _99
REMARK   40  A    between atoms: _102  and  _104
REMARK   41  A    between atoms: _104  and  _105
REMARK   42  A    between atoms: _107  and  _109
REMARK   43  A    between atoms: _109  and  _110
REMARK   44  A    between atoms: _109  and  _112
REMARK   45  A    between atoms: _112  and  _113
REMARK   46  A    between atoms: _115  and  _117
REMARK   47  A    between atoms: _117  and  _118
REMARK   48  A    between atoms: _117  and  _120
REMARK   49  A    between atoms: _120  and  _121
REMARK   50  A    between atoms: _123  and  _125
REMARK   51  A    between atoms: _125  and  _126
REMARK   52  A    between atoms: _125  and  _128
REMARK   53  A    between atoms: _128  and  _129
REMARK   54  A    between atoms: _134  and  _136
REMARK   55  A    between atoms: _136  and  _137
REMARK   56  A    between atoms: _136  and  _139
REMARK   57  A    between atoms: _139  and  _140
REMARK   58  A    between atoms: _150  and  _152
REMARK   59  A    between atoms: _152  and  _153
REMARK   60  A    between atoms: _152  and  _155
REMARK   61  A    between atoms: _155  and  _156
REMARK   62  A    between atoms: _159  and  _161
REMARK   63  A    between atoms: _161  and  _162
REMARK   64  A    between atoms: _161  and  _164
REMARK   65  A    between atoms: _164  and  _165
REMARK   66  A    between atoms: _165  and  _166
REMARK   67  A    between atoms: _166  and  _167
REMARK   68  A    between atoms: _176  and  _178
REMARK   69  A    between atoms: _178  and  _179
REMARK   70  A    between atoms: _178  and  _181
REMARK   71  A    between atoms: _181  and  _182
REMARK   72  A    between atoms: _187  and  _188
REMARK   73  A    between atoms: _190  and  _192
REMARK   74  A    between atoms: _192  and  _193
REMARK   75  A    between atoms: _192  and  _195
REMARK   76  A    between atoms: _195  and  _196
REMARK   77  A    between atoms: _198  and  _200
REMARK   78  A    between atoms: _200  and  _201
REMARK   79  A    between atoms: _200  and  _203
REMARK   80  A    between atoms: _203  and  _204
REMARK   81  A    between atoms: _207  and  _209
REMARK   82  A    between atoms: _209  and  _210
REMARK   83  A    between atoms: _212  and  _214
REMARK   84  A    between atoms: _214  and  _215
REMARK   85  A    between atoms: _214  and  _217
REMARK   86  A    between atoms: _221  and  _222
REMARK   87  A    between atoms: _227  and  _229
REMARK   88  A    between atoms: _229  and  _230
REMARK   89  A    between atoms: _233  and  _235
REMARK   90  A    between atoms: _235  and  _236
REMARK   91  A    between atoms: _235  and  _238
REMARK   92  A    between atoms: _238  and  _239
REMARK   93  A    between atoms: _243  and  _244
REMARK   94  A    between atoms: _249  and  _251
REMARK   95  A    between atoms: _251  and  _252
REMARK   96  A    between atoms: _251  and  _254
REMARK   97  A    between atoms: _254  and  _255
REMARK   98  A    between atoms: _261  and  _263
REMARK   99  A    between atoms: _263  and  _264
REMARK  100  A    between atoms: _263  and  _266
REMARK  101  A    between atoms: _266  and  _267
REMARK  102  A    between atoms: _267  and  _268
REMARK  103  A    between atoms: _270  and  _272
REMARK  104  A    between atoms: _272  and  _273
REMARK  105  A    between atoms: _272  and  _275
REMARK  106  A    between atoms: _275  and  _276
REMARK  107  A    between atoms: _279  and  _281
REMARK  108  A    between atoms: _281  and  _282
REMARK  109  A    between atoms: _285  and  _287
REMARK  110  A    between atoms: _287  and  _288
REMARK  111  A    between atoms: _287  and  _290
REMARK  112  A    between atoms: _290  and  _291
REMARK  113  A    between atoms: _291  and  _292
REMARK  114  A    between atoms: _295  and  _297
REMARK  115  A    between atoms: _297  and  _298
REMARK  116  A    between atoms: _297  and  _300
REMARK  117  A    between atoms: _300  and  _301
REMARK  118  A    between atoms: _307  and  _309
REMARK  119  A    between atoms: _309  and  _310
REMARK  120  A    between atoms: _312  and  _314
REMARK  121  A    between atoms: _314  and  _315
REMARK  122  A    between atoms: _314  and  _317
REMARK  123  A    between atoms: _320  and  _322
REMARK  124  A    between atoms: _322  and  _323
REMARK  125  A    between atoms: _322  and  _325
REMARK  126  A    between atoms: _328  and  _330
REMARK  127  A    between atoms: _330  and  _331
REMARK  128  A    between atoms: _333  and  _335
REMARK  129  A    between atoms: _335  and  _336
REMARK  130  A    between atoms: _335  and  _338
REMARK  131  A    between atoms: _338  and  _339
REMARK  132  A    between atoms: _339  and  _340
REMARK  133  A    between atoms: _342  and  _344
REMARK  134  A    between atoms: _344  and  _345
REMARK  135  A    between atoms: _344  and  _347
REMARK  136  A    between atoms: _347  and  _348
REMARK  137  A    between atoms: _353  and  _354
REMARK  138  A    between atoms: _356  and  _358
REMARK  139  A    between atoms: _358  and  _359
REMARK  140  A    between atoms: _358  and  _361
REMARK  141  A    between atoms: _361  and  _362
REMARK  142  A    between atoms: _365  and  _367
REMARK  143  A    between atoms: _367  and  _368
REMARK  144  A    between atoms: _367  and  _370
REMARK  145  A    between atoms: _373  and  _375
REMARK  146  A    between atoms: _375  and  _376
REMARK  147  A    between atoms: _375  and  _378
REMARK  148  A    between atoms: _378  and  _379
REMARK  149  A    between atoms: _382  and  _384
REMARK  150  A    between atoms: _384  and  _385
REMARK  151  A    between atoms: _384  and  _387
REMARK  152  A    between atoms: _387  and  _388
REMARK  153  A    between atoms: _391  and  _393
REMARK  154  A    between atoms: _393  and  _394
REMARK  155  A    between atoms: _396  and  _398
REMARK  156  A    between atoms: _398  and  _399
REMARK  157  A    between atoms: _402  and  _404
REMARK  158  A    between atoms: _404  and  _405
REMARK  159  A    between atoms: _404  and  _407
REMARK  160  A    between atoms: _407  and  _408
REMARK  161  A    between atoms: _410  and  _412
REMARK  162  A    between atoms: _412  and  _413
REMARK  163  A    between atoms: _412  and  _415
REMARK  164  A    between atoms: _415  and  _416
REMARK  165  A    between atoms: _421  and  _422
REMARK  166  A    between atoms: _424  and  _426
REMARK  167  A    between atoms: _426  and  _427
REMARK  168  A    between atoms: _426  and  _429
REMARK  169  A    between atoms: _429  and  _430
REMARK  170  A    between atoms: _433  and  _435
REMARK  171  A    between atoms: _435  and  _436
REMARK  172  A    between atoms: _435  and  _438
REMARK  173  A    between atoms: _438  and  _439
REMARK  174  A    between atoms: _441  and  _443
REMARK  175  A    between atoms: _443  and  _444
REMARK  176  A    between atoms: _446  and  _448
REMARK  177  A    between atoms: _448  and  _449
REMARK  178  A    between atoms: _448  and  _451
REMARK  179  A    between atoms: _451  and  _452
REMARK  180  A    between atoms: _457  and  _459
REMARK  181  A    between atoms: _459  and  _460
REMARK  182  A    between atoms: _463  and  _465
REMARK  183  A    between atoms: _465  and  _466
REMARK  184  A    between atoms: _465  and  _468
REMARK  185  A    between atoms: _468  and  _469
REMARK  186  A    between atoms: _469  and  _470
REMARK  187  A    between atoms: _472  and  _474
REMARK  188  A    between atoms: _474  and  _475
REMARK  189  A    between atoms: _474  and  _477
REMARK  190  A    between atoms: _477  and  _478
REMARK  191  A    between atoms: _481  and  _483
REMARK  192  A    between atoms: _483  and  _484
REMARK  193  A    between atoms: _483  and  _486
REMARK  194  A    between atoms: _486  and  _487
REMARK  195  A    between atoms: _490  and  _492
REMARK  196  A    between atoms: _492  and  _493
REMARK  197  A    between atoms: _496  and  _498
REMARK  198  A    between atoms: _498  and  _499
REMARK                            x       y       z     vdW  Elec       q    Type
REMARK                         _______ _______ _______ _____ _____    ______ ____
ROOT
ATOM      1  C   ALA A   6      36.485  64.763  46.675  0.00  0.00    +0.241 C 
ATOM      2  O   ALA A   6      35.975  65.672  47.341  0.00  0.00    -0.273 OA
ATOM      3  N   SER A   7      37.658  64.213  47.001  0.00  0.00    -0.295 N 
ATOM      4  H   SER A   7      38.031  63.433  46.423  0.00  0.00    +0.150 HD
ENDROOT
BRANCH   1   5
ATOM      5  CA  ALA A   6      35.761  64.230  45.435  0.00  0.00    +0.149 C 
ATOM      6  CB  ALA A   6      35.999  65.181  44.256  0.00  0.00    +0.031 C 
BRANCH   5   9
ATOM      7  C   GLY A   5      33.698  63.019  46.068  0.00  0.00    +0.243 C 
ATOM      8  O   GLY A   5      34.276  61.931  46.072  0.00  0.00    -0.273 OA
ATOM      9  N   ALA A   6      34.327  64.170  45.742  0.00  0.00    -0.297 N 
ATOM     10  H   ALA A   6      33.772  65.049  45.707  0.00  0.00    +0.150 HD
BRANCH   7  11
ATOM     11  CA  GLY A   5      32.221  63.088  46.435  0.00  0.00    +0.176 C 
BRANCH  11  14
ATOM     12  C   THR A   4      31.624  65.280  47.418  0.00  0.00    +0.243 C 
ATOM     13  O   THR A   4      32.084  65.008  48.536  0.00  0.00    -0.273 OA
ATOM     14  N   GLY A   5      31.627  64.429  46.390  0.00  0.00    -0.295 N 
ATOM     15  H   GLY A   5      31.181  64.735  45.502  0.00  0.00    +0.150 HD
BRANCH  12  16
ATOM     16  CA  THR A   4      30.984  66.663  47.158  0.00  0.00    +0.176 C 
BRANCH  16  18
ATOM     17  C   ASP A   3      32.015  67.265  44.994  0.00  0.00    +0.241 C 
ATOM     18  N   THR A   4      30.929  67.010  45.731  0.00  0.00    -0.295 N 
ATOM     19  H   THR A   4      29.998  67.060  45.271  0.00  0.00    +0.150 HD
ATOM     20  O   ASP A   3      33.160  67.161  45.422  0.00  0.00    -0.273 OA
BRANCH  17  21
ATOM     21  CA  ASP A   3      31.770  67.595  43.527  0.00  0.00    +0.160 C 
BRANCH  21  23
ATOM     22  C   VAL A   2      30.826  69.775  42.814  0.00  0.00    +0.241 C 
ATOM     23  N   ASP A   3      31.879  69.019  43.187  0.00  0.00    -0.297 N 
ATOM     24  H   ASP A   3      32.816  69.468  43.236  0.00  0.00    +0.150 HD
ATOM     25  O   VAL A   2      29.668  69.365  42.807  0.00  0.00    -0.273 OA
BRANCH  22  26
ATOM     26  CA  VAL A   2      31.167  71.142  42.250  0.00  0.00    +0.148 C 
BRANCH  26  28
ATOM     27  C   LEU A   1      32.238  70.737  40.077  0.00  0.00    +0.238 C 
ATOM     28  N   VAL A   2      31.125  70.976  40.787  0.00  0.00    -0.297 N 
ATOM     29  H   VAL A   2      30.212  71.046  40.293  0.00  0.00    +0.150 HD
ATOM     30  O   LEU A   1      33.348  70.726  40.596  0.00  0.00    -0.274 OA
BRANCH  27  31
ATOM     31  CA  LEU A   1      32.129  70.585  38.540  0.00  0.00    +0.145 C 
BRANCH  31  32
ATOM     32  N   LEU A   1      33.083  71.543  37.979  0.00  0.00    -0.238 NA
ATOM     33  H   LEU A   1      34.030  71.200  37.720  0.00  0.00    +0.142 HD
ENDBRANCH  31  32
BRANCH  31  34
ATOM     34  CB  LEU A   1      32.513  69.158  38.085  0.00  0.00    +0.026 C 
BRANCH  34  35
ATOM     35  CG  LEU A   1      31.602  68.036  38.568  0.00  0.00    +0.002 C 
ATOM     36  CD2 LEU A   1      32.262  66.675  38.373  0.00  0.00    +0.000 C 
ATOM     37  CD1 LEU A   1      30.244  68.113  37.911  0.00  0.00    +0.000 C 
ENDBRANCH  34  35
ENDBRANCH  31  34
ENDBRANCH  27  31
ENDBRANCH  26  28
BRANCH  26  38
ATOM     38  CB  VAL A   2      30.280  72.308  42.775  0.00  0.00    +0.027 C 
ATOM     39  CG2 VAL A   2      30.479  72.496  44.280  0.00  0.00    +0.002 C 
ATOM     40  CG1 VAL A   2      30.616  73.596  42.046  0.00  0.00    +0.002 C 
ENDBRANCH  26  38
ENDBRANCH  22  26
ENDBRANCH  21  23
BRANCH  21  41
ATOM     41  CB  ASP A   3      32.719  66.797  42.604  0.00  0.00    +0.143 C 
BRANCH  41  42
ATOM     42  CG  ASP A   3      32.560  65.298  42.636  0.00  0.00    +0.367 C 
ATOM     43  OD2 ASP A   3      31.652  64.804  43.368  0.00  0.00    -0.246 OA
ATOM     44  OD1 ASP A   3      33.326  64.607  41.926  0.00  0.00    -0.246 OA
ENDBRANCH  41  42
ENDBRANCH  21  41
ENDBRANCH  17  21
ENDBRANCH  16  18
BRANCH  16  45
ATOM     45  CB  THR A   4      29.610  66.787  47.787  0.00  0.00    +0.137 C 
ATOM     46  CG2 THR A   4      29.014  68.211  47.657  0.00  0.00    +0.034 C 
BRANCH  45  47
ATOM     47  OG1 THR A   4      28.761  65.841  47.156  0.00  0.00    -0.382 OA
ATOM     48  HG1 THR A   4      29.123  64.930  47.295  0.00  0.00    +0.210 HD
ENDBRANCH  45  47
ENDBRANCH  16  45
ENDBRANCH  12  16
ENDBRANCH  11  14
ENDBRANCH   7  11
ENDBRANCH   5   9
ENDBRANCH   1   5
BRANCH   3  49
ATOM     49  CA  SER A   7      38.430  64.681  48.151  0.00  0.00    +0.178 C 
BRANCH  49  50
ATOM     50  C   SER A   7      39.133  65.986  47.841  0.00  0.00    +0.243 C 
ATOM     51  O   SER A   7      39.160  66.906  48.667  0.00  0.00    -0.273 OA
ATOM     52  N   TYR A   8      39.788  66.017  46.670  0.00  0.00    -0.297 N 
ATOM     53  H   TYR A   8      39.675  65.220  46.012  0.00  0.00    +0.150 HD
BRANCH  52  54
ATOM     54  CA  TYR A   8      40.652  67.128  46.286  0.00  0.00    +0.153 C 
BRANCH  54  55
ATOM     55  C   TYR A   8      40.063  67.989  45.198  0.00  0.00    +0.241 C 
ATOM     56  N   ILE A   9      40.672  69.150  44.986  0.00  0.00    -0.297 N 
ATOM     57  H   ILE A   9      41.396  69.481  45.655  0.00  0.00    +0.150 HD
ATOM     58  O   TYR A   8      39.119  67.591  44.519  0.00  0.00    -0.273 OA
BRANCH  56  59
ATOM     59  CA  ILE A   9      40.338  69.958  43.835  0.00  0.00    +0.149 C 
BRANCH  59  60
ATOM     60  C   ILE A   9      41.081  69.233  42.673  0.00  0.00    +0.241 C 
ATOM     61  O   ILE A   9      42.209  68.763  42.862  0.00  0.00    -0.273 OA
ATOM     62  N   SER A  10      40.447  69.117  41.504  0.00  0.00    -0.295 N 
ATOM     63  H   SER A  10      39.456  69.418  41.412  0.00  0.00    +0.150 HD
BRANCH  62  64
ATOM     64  CA  SER A  10      41.157  68.564  40.358  0.00  0.00    +0.178 C 
BRANCH  64  65
ATOM     65  C   SER A  10      41.075  69.480  39.140  0.00  0.00    +0.243 C 
ATOM     66  O   SER A  10      40.120  70.232  38.985  0.00  0.00    -0.273 OA
ATOM     67  N   GLY A  11      42.099  69.393  38.308  0.00  0.00    -0.296 N 
ATOM     68  H   GLY A  11      42.898  68.790  38.591  0.00  0.00    +0.150 HD
BRANCH  67  69
ATOM     69  CA  GLY A  11      42.193  70.077  37.027  0.00  0.00    +0.163 C 
BRANCH  69  70
ATOM     70  C   GLY A  11      42.708  69.060  36.024  0.00  0.00    +0.229 C 
ATOM     71  O   GLY A  11      43.093  67.941  36.408  0.00  0.00    -0.286 OA
ENDBRANCH  69  70
ENDBRANCH  67  69
ENDBRANCH  64  65
BRANCH  64  72
ATOM     72  CB  SER A  10      40.683  67.158  40.013  0.00  0.00    +0.166 C 
BRANCH  72  73
ATOM     73  OG  SER A  10      39.404  67.178  39.416  0.00  0.00    -0.380 OA
ATOM     74  H   SER A  10      39.438  67.712  38.583  0.00  0.00    +0.211 HD
ENDBRANCH  72  73
ENDBRANCH  64  72
ENDBRANCH  62  64
ENDBRANCH  59  60
BRANCH  59  75
ATOM     75  CB  ILE A   9      40.858  71.408  44.009  0.00  0.00    +0.027 C 
ATOM     76  CG2 ILE A   9      41.046  72.120  42.630  0.00  0.00    +0.002 C 
BRANCH  75  77
ATOM     77  CG1 ILE A   9      39.919  72.208  44.926  0.00  0.00    +0.002 C 
ATOM     78  CD1 ILE A   9      40.561  73.488  45.444  0.00  0.00    +0.000 C 
ENDBRANCH  75  77
ENDBRANCH  59  75
ENDBRANCH  56  59
ENDBRANCH  54  55
BRANCH  54  79
ATOM     79  CB  TYR A   8      41.997  66.549  45.742  0.00  0.00    +0.055 C 
BRANCH  79  80
ATOM     80  CG  TYR A   8      42.844  65.783  46.739  0.00  0.00    -0.020 A 
ATOM     81  CD2 TYR A   8      42.558  65.818  48.105  0.00  0.00    -0.001 A 
ATOM     82  CE2 TYR A   8      43.347  65.145  49.027  0.00  0.00    +0.036 A 
ATOM     83  CZ  TYR A   8      44.452  64.425  48.596  0.00  0.00    +0.134 A 
ATOM     84  CE1 TYR A   8      44.794  64.419  47.249  0.00  0.00    +0.036 A 
ATOM     85  CD1 TYR A   8      43.989  65.095  46.329  0.00  0.00    -0.001 A 
BRANCH  83  86
ATOM     86  OH  TYR A   8      45.208  63.752  49.529  0.00  0.00    -0.506 OA
ATOM     87  HH  TYR A   8      44.808  63.874  50.426  0.00  0.00    +0.292 HD
ENDBRANCH  83  86
ENDBRANCH  79  80
ENDBRANCH  54  79
ENDBRANCH  52  54
ENDBRANCH  49  50
BRANCH  49  88
ATOM     88  CB  SER A   7      39.491  63.651  48.547  0.00  0.00    +0.166 C 
BRANCH  88  89
ATOM     89  OG  SER A   7      38.894  62.387  48.768  0.00  0.00    -0.380 OA
ATOM     90  H   SER A   7      38.228  62.461  49.497  0.00  0.00    +0.211 HD
ENDBRANCH  88  89
ENDBRANCH  49  88
ENDBRANCH   3  49
TORSDOF 38
REMARK  Name = ../refined-set-2016/4s1g/4s1g_pocket.pdb
REMARK  198 active torsions:
REMARK  status: ('A' for Active; 'I' for Inactive)
REMARK    1  A    between atoms: _1  and  _3
REMARK    2  A    between atoms: _3  and  _4
REMARK    3  A    between atoms: _3  and  _6
REMARK    4  A    between atoms: _6  and  _7
REMARK    5  A    between atoms: _12  and  _13
REMARK    6  A    between atoms: _15  and  _17
REMARK    7  A    between atoms: _17  and  _18
REMARK    8  A    between atoms: _17  and  _20
REMARK    9  A    between atoms: _20  and  _21
REMARK   10  A    between atoms: _24  and  _26
REMARK   11  A    between atoms: _26  and  _27
REMARK   12  A    between atoms: _26  and  _29
REMARK   13  A    between atoms: _29  and  _30
REMARK   14  A    between atoms: _30  and  _31
REMARK   15  A    between atoms: _36  and  _38
REMARK   16  A    between atoms: _38  and  _39
REMARK   17  A    between atoms: _38  and  _41
REMARK   18  A    between atoms: _41  and  _42
REMARK   19  A    between atoms: _47  and  _48
REMARK   20  A    between atoms: _50  and  _52
REMARK   21  A    between atoms: _52  and  _53
REMARK   22  A    between atoms: _52  and  _55
REMARK   23  A    between atoms: _55  and  _56
REMARK   24  A    between atoms: _61  and  _62
REMARK   25  A    between atoms: _64  and  _66
REMARK   26  A    between atoms: _66  and  _67
REMARK   27  A    between atoms: _66  and  _69
REMARK   28  A    between atoms: _72  and  _74
REMARK   29  A    between atoms: _74  and  _75
REMARK   30  A    between atoms: _74  and  _77
REMARK   31  A    between atoms: _77  and  _78
REMARK   32  A    between atoms: _84  and  _86
REMARK   33  A    between atoms: _86  and  _87
REMARK   34  A    between atoms: _86  and  _89
REMARK   35  A    between atoms: _89  and  _90
REMARK   36  A    between atoms: _93  and  _95
REMARK   37  A    between atoms: _95  and  _96
REMARK   38  A    between atoms: _95  and  _98
REMARK   39  A    between atoms: _98  and  _99
REMARK   40  A    between atoms: _102  and  _104
REMARK   41  A    between atoms: _104  and  _105
REMARK   42  A    between atoms: _107  and  _109
REMARK   43  A    between atoms: _109  and  _110
REMARK   44  A    between atoms: _109  and  _112
REMARK   45  A    between atoms: _112  and  _113
REMARK   46  A    between atoms: _115  and  _117
REMARK   47  A    between atoms: _117  and  _118
REMARK   48  A    between atoms: _117  and  _120
REMARK   49  A    between atoms: _120  and  _121
REMARK   50  A    between atoms: _123  and  _125
REMARK   51  A    between atoms: _125  and  _126
REMARK   52  A    between atoms: _125  and  _128
REMARK   53  A    between atoms: _128  and  _129
REMARK   54  A    between atoms: _134  and  _136
REMARK   55  A    between atoms: _136  and  _137
REMARK   56  A    between atoms: _136  and  _139
REMARK   57  A    between atoms: _139  and  _140
REMARK   58  A    between atoms: _150  and  _152
REMARK   59  A    between atoms: _152  and  _153
REMARK   60  A    between atoms: _152  and  _155
REMARK   61  A    between atoms: _155  and  _156
REMARK   62  A    between atoms: _159  and  _161
REMARK   63  A    between atoms: _161  and  _162
REMARK   64  A    between atoms: _161  and  _164
REMARK   65  A    between atoms: _164  and  _165
REMARK   66  A    between atoms: _165  and  _166
REMARK   67  A    between atoms: _166  and  _167
REMARK   68  A    between atoms: _176  and  _178
REMARK   69  A    between atoms: _178  and  _179
REMARK   70  A    between atoms: _178  and  _181
REMARK   71  A    between atoms: _181  and  _182
REMARK   72  A    between atoms: _187  and  _188
REMARK   73  A    between atoms: _190  and  _192
REMARK   74  A    between atoms: _192  and  _193
REMARK   75  A    between atoms: _192  and  _195
REMARK   76  A    between atoms: _195  and  _196
REMARK   77  A    between atoms: _198  and  _200
REMARK   78  A    between atoms: _200  and  _201
REMARK   79  A    between atoms: _200  and  _203
REMARK   80  A    between atoms: _203  and  _204
REMARK   81  A    between atoms: _207  and  _209
REMARK   82  A    between atoms: _209  and  _210
REMARK   83  A    between atoms: _212  and  _214
REMARK   84  A    between atoms: _214  and  _215
REMARK   85  A    between atoms: _214  and  _217
REMARK   86  A    between atoms: _221  and  _222
REMARK   87  A    between atoms: _227  and  _229
REMARK   88  A    between atoms: _229  and  _230
REMARK   89  A    between atoms: _233  and  _235
REMARK   90  A    between atoms: _235  and  _236
REMARK   91  A    between atoms: _235  and  _238
REMARK   92  A    between atoms: _238  and  _239
REMARK   93  A    between atoms: _243  and  _244
REMARK   94  A    between atoms: _249  and  _251
REMARK   95  A    between atoms: _251  and  _252
REMARK   96  A    between atoms: _251  and  _254
REMARK   97  A    between atoms: _254  and  _255
REMARK   98  A    between atoms: _261  and  _263
REMARK   99  A    between atoms: _263  and  _264
REMARK  100  A    between atoms: _263  and  _266
REMARK  101  A    between atoms: _266  and  _267
REMARK  102  A    between atoms: _267  and  _268
REMARK  103  A    between atoms: _270  and  _272
REMARK  104  A    between atoms: _272  and  _273
REMARK  105  A    between atoms: _272  and  _275
REMARK  106  A    between atoms: _275  and  _276
REMARK  107  A    between atoms: _279  and  _281
REMARK  108  A    between atoms: _281  and  _282
REMARK  109  A    between atoms: _285  and  _287
REMARK  110  A    between atoms: _287  and  _288
REMARK  111  A    between atoms: _287  and  _290
REMARK  112  A    between atoms: _290  and  _291
REMARK  113  A    between atoms: _291  and  _292
REMARK  114  A    between atoms: _295  and  _297
REMARK  115  A    between atoms: _297  and  _298
REMARK  116  A    between atoms: _297  and  _300
REMARK  117  A    between atoms: _300  and  _301
REMARK  118  A    between atoms: _307  and  _309
REMARK  119  A    between atoms: _309  and  _310
REMARK  120  A    between atoms: _312  and  _314
REMARK  121  A    between atoms: _314  and  _315
REMARK  122  A    between atoms: _314  and  _317
REMARK  123  A    between atoms: _320  and  _322
REMARK  124  A    between atoms: _322  and  _323
REMARK  125  A    between atoms: _322  and  _325
REMARK  126  A    between atoms: _328  and  _330
REMARK  127  A    between atoms: _330  and  _331
REMARK  128  A    between atoms: _333  and  _335
REMARK  129  A    between atoms: _335  and  _336
REMARK  130  A    between atoms: _335  and  _338
REMARK  131  A    between atoms: _338  and  _339
REMARK  132  A    between atoms: _339  and  _340
REMARK  133  A    between atoms: _342  and  _344
REMARK  134  A    between atoms: _344  and  _345
REMARK  135  A    between atoms: _344  and  _347
REMARK  136  A    between atoms: _347  and  _348
REMARK  137  A    between atoms: _353  and  _354
REMARK  138  A    between atoms: _356  and  _358
REMARK  139  A    between atoms: _358  and  _359
REMARK  140  A    between atoms: _358  and  _361
REMARK  141  A    between atoms: _361  and  _362
REMARK  142  A    between atoms: _365  and  _367
REMARK  143  A    between atoms: _367  and  _368
REMARK  144  A    between atoms: _367  and  _370
REMARK  145  A    between atoms: _373  and  _375
REMARK  146  A    between atoms: _375  and  _376
REMARK  147  A    between atoms: _375  and  _378
REMARK  148  A    between atoms: _378  and  _379
REMARK  149  A    between atoms: _382  and  _384
REMARK  150  A    between atoms: _384  and  _385
REMARK  151  A    between atoms: _384  and  _387
REMARK  152  A    between atoms: _387  and  _388
REMARK  153  A    between atoms: _391  and  _393
REMARK  154  A    between atoms: _393  and  _394
REMARK  155  A    between atoms: _396  and  _398
REMARK  156  A    between atoms: _398  and  _399
REMARK  157  A    between atoms: _402  and  _404
REMARK  158  A    between atoms: _404  and  _405
REMARK  159  A    between atoms: _404  and  _407
REMARK  160  A    between atoms: _407  and  _408
REMARK  161  A    between atoms: _410  and  _412
REMARK  162  A    between atoms: _412  and  _413
REMARK  163  A    between atoms: _412  and  _415
REMARK  164  A    between atoms: _415  and  _416
REMARK  165  A    between atoms: _421  and  _422
REMARK  166  A    between atoms: _424  and  _426
REMARK  167  A    between atoms: _426  and  _427
REMARK  168  A    between atoms: _426  and  _429
REMARK  169  A    between atoms: _429  and  _430
REMARK  170  A    between atoms: _433  and  _435
REMARK  171  A    between atoms: _435  and  _436
REMARK  172  A    between atoms: _435  and  _438
REMARK  173  A    between atoms: _438  and  _439
REMARK  174  A    between atoms: _441  and  _443
REMARK  175  A    between atoms: _443  and  _444
REMARK  176  A    between atoms: _446  and  _448
REMARK  177  A    between atoms: _448  and  _449
REMARK  178  A    between atoms: _448  and  _451
REMARK  179  A    between atoms: _451  and  _452
REMARK  180  A    between atoms: _457  and  _459
REMARK  181  A    between atoms: _459  and  _460
REMARK  182  A    between atoms: _463  and  _465
REMARK  183  A    between atoms: _465  and  _466
REMARK  184  A    between atoms: _465  and  _468
REMARK  185  A    between atoms: _468  and  _469
REMARK  186  A    between atoms: _469  and  _470
REMARK  187  A    between atoms: _472  and  _474
REMARK  188  A    between atoms: _474  and  _475
REMARK  189  A    between atoms: _474  and  _477
REMARK  190  A    between atoms: _477  and  _478
REMARK  191  A    between atoms: _481  and  _483
REMARK  192  A    between atoms: _483  and  _484
REMARK  193  A    between atoms: _483  and  _486
REMARK  194  A    between atoms: _486  and  _487
REMARK  195  A    between atoms: _490  and  _492
REMARK  196  A    between atoms: _492  and  _493
REMARK  197  A    between atoms: _496  and  _498
REMARK  198  A    between atoms: _498  and  _499
REMARK                            x       y       z     vdW  Elec       q    Type
REMARK                         _______ _______ _______ _____ _____    ______ ____
ROOT
ATOM      1  CA  MET A   3      41.952  64.164  36.814  0.00  0.00    +0.149 C 
ENDROOT
BRANCH   1   4
ATOM      2  C   ALA A   2      44.022  64.823  37.941  0.00  0.00    +0.241 C 
ATOM      3  O   ALA A   2      44.154  63.741  38.502  0.00  0.00    -0.273 OA
ATOM      4  N   MET A   3      42.988  65.120  37.174  0.00  0.00    -0.297 N 
ATOM      5  H   MET A   3      42.910  66.090  36.808  0.00  0.00    +0.150 HD
BRANCH   2   6
ATOM      6  CA  ALA A   2      45.074  65.900  38.105  0.00  0.00    +0.149 C 
ATOM      7  CB  ALA A   2      46.213  65.671  37.107  0.00  0.00    +0.031 C 
BRANCH   6  10
ATOM      8  C   HIS A   1      45.125  66.775  40.368  0.00  0.00    +0.239 C 
ATOM      9  O   HIS A   1      44.234  67.580  40.107  0.00  0.00    -0.274 OA
ATOM     10  N   ALA A   2      45.592  65.913  39.468  0.00  0.00    -0.297 N 
ATOM     11  H   ALA A   2      46.336  65.240  39.740  0.00  0.00    +0.150 HD
BRANCH   8  12
ATOM     12  CA  HIS A   1      45.700  66.695  41.782  0.00  0.00    +0.151 C 
BRANCH  12  13
ATOM     13  N   HIS A   1      45.099  67.714  42.666  0.00  0.00    -0.238 NA
ATOM     14  H   HIS A   1      44.135  68.042  42.453  0.00  0.00    +0.142 HD
ENDBRANCH  12  13
BRANCH  12  15
ATOM     15  CB  HIS A   1      45.497  65.267  42.381  0.00  0.00    +0.074 C 
BRANCH  15  16
ATOM     16  CG  HIS A   1      44.090  64.750  42.310  0.00  0.00    +0.082 A 
ATOM     17  CD2 HIS A   1      42.906  65.408  42.415  0.00  0.00    +0.115 A 
ATOM     18  NE2 HIS A   1      41.919  64.475  42.269  0.00  0.00    -0.221 NA
ATOM     19  CE1 HIS A   1      42.515  63.303  42.083  0.00  0.00    +0.199 A 
ATOM     20  ND1 HIS A   1      43.834  63.424  42.090  0.00  0.00    -0.227 NA
ENDBRANCH  15  16
ENDBRANCH  12  15
ENDBRANCH   8  12
ENDBRANCH   6  10
ENDBRANCH   2   6
ENDBRANCH   1   4
BRANCH   1  21
ATOM     21  C   MET A   3      41.395  64.587  35.482  0.00  0.00    +0.241 C 
ATOM     22  O   MET A   3      40.819  65.675  35.380  0.00  0.00    -0.273 OA
ATOM     23  N   ASP A   4      41.609  63.763  34.436  0.00  0.00    -0.297 N 
ATOM     24  H   ASP A   4      42.148  62.885  34.579  0.00  0.00    +0.150 HD
BRANCH  23  25
ATOM     25  CA  ASP A   4      41.096  64.083  33.103  0.00  0.00    +0.160 C 
BRANCH  25  26
ATOM     26  C   ASP A   4      39.720  63.488  32.975  0.00  0.00    +0.241 C 
ATOM     27  N   ILE A   5      38.707  64.341  33.089  0.00  0.00    -0.298 N 
ATOM     28  H   ILE A   5      38.910  65.351  33.229  0.00  0.00    +0.150 HD
ATOM     29  O   ASP A   4      39.567  62.274  32.875  0.00  0.00    -0.273 OA
BRANCH  27  30
ATOM     30  CA  ILE A   5      37.323  63.901  33.024  0.00  0.00    +0.137 C 
BRANCH  30  31
ATOM     31  C   ILE A   5      36.900  63.906  31.570  0.00  0.00    +0.227 C 
ATOM     32  O   ILE A   5      37.069  64.929  30.906  0.00  0.00    -0.286 OA
ENDBRANCH  30  31
BRANCH  30  33
ATOM     33  CB  ILE A   5      36.413  64.710  33.983  0.00  0.00    +0.026 C 
ATOM     34  CG2 ILE A   5      34.959  64.277  33.829  0.00  0.00    +0.002 C 
BRANCH  33  35
ATOM     35  CG1 ILE A   5      36.906  64.541  35.456  0.00  0.00    +0.002 C 
ATOM     36  CD1 ILE A   5      36.589  65.625  36.423  0.00  0.00    +0.000 C 
ENDBRANCH  33  35
ENDBRANCH  30  33
ENDBRANCH  27  30
ENDBRANCH  25  26
BRANCH  25  37
ATOM     37  CB  ASP A   4      42.042  63.620  31.979  0.00  0.00    +0.143 C 
BRANCH  37  38
ATOM     38  CG  ASP A   4      43.390  64.303  32.014  0.00  0.00    +0.367 C 
ATOM     39  OD2 ASP A   4      44.407  63.589  32.136  0.00  0.00    -0.246 OA
ATOM     40  OD1 ASP A   4      43.428  65.556  31.913  0.00  0.00    -0.246 OA
ENDBRANCH  37  38
ENDBRANCH  25  37
ENDBRANCH  23  25
ENDBRANCH   1  21
BRANCH   1  41
ATOM     41  CB  MET A   3      40.850  64.023  37.906  0.00  0.00    +0.041 C 
BRANCH  41  42
ATOM     42  CG  MET A   3      39.839  62.877  37.648  0.00  0.00    +0.060 C 
BRANCH  42  43
ATOM     43  SD  MET A   3      40.516  61.173  37.470  0.00  0.00    -0.139 S 
ATOM     44  CE  MET A   3      41.613  61.084  38.908  0.00  0.00    +0.069 C 
ENDBRANCH  42  43
ENDBRANCH  41  42
ENDBRANCH   1  41
TORSDOF 19
REMARK  Name = ../refined-set-2016/4s1g/4s1g_pocket.pdb
REMARK  198 active torsions:
REMARK  status: ('A' for Active; 'I' for Inactive)
REMARK    1  A    between atoms: _1  and  _3
REMARK    2  A    between atoms: _3  and  _4
REMARK    3  A    between atoms: _3  and  _6
REMARK    4  A    between atoms: _6  and  _7
REMARK    5  A    between atoms: _12  and  _13
REMARK    6  A    between atoms: _15  and  _17
REMARK    7  A    between atoms: _17  and  _18
REMARK    8  A    between atoms: _17  and  _20
REMARK    9  A    between atoms: _20  and  _21
REMARK   10  A    between atoms: _24  and  _26
REMARK   11  A    between atoms: _26  and  _27
REMARK   12  A    between atoms: _26  and  _29
REMARK   13  A    between atoms: _29  and  _30
REMARK   14  A    between atoms: _30  and  _31
REMARK   15  A    between atoms: _36  and  _38
REMARK   16  A    between atoms: _38  and  _39
REMARK   17  A    between atoms: _38  and  _41
REMARK   18  A    between atoms: _41  and  _42
REMARK   19  A    between atoms: _47  and  _48
REMARK   20  A    between atoms: _50  and  _52
REMARK   21  A    between atoms: _52  and  _53
REMARK   22  A    between atoms: _52  and  _55
REMARK   23  A    between atoms: _55  and  _56
REMARK   24  A    between atoms: _61  and  _62
REMARK   25  A    between atoms: _64  and  _66
REMARK   26  A    between atoms: _66  and  _67
REMARK   27  A    between atoms: _66  and  _69
REMARK   28  A    between atoms: _72  and  _74
REMARK   29  A    between atoms: _74  and  _75
REMARK   30  A    between atoms: _74  and  _77
REMARK   31  A    between atoms: _77  and  _78
REMARK   32  A    between atoms: _84  and  _86
REMARK   33  A    between atoms: _86  and  _87
REMARK   34  A    between atoms: _86  and  _89
REMARK   35  A    between atoms: _89  and  _90
REMARK   36  A    between atoms: _93  and  _95
REMARK   37  A    between atoms: _95  and  _96
REMARK   38  A    between atoms: _95  and  _98
REMARK   39  A    between atoms: _98  and  _99
REMARK   40  A    between atoms: _102  and  _104
REMARK   41  A    between atoms: _104  and  _105
REMARK   42  A    between atoms: _107  and  _109
REMARK   43  A    between atoms: _109  and  _110
REMARK   44  A    between atoms: _109  and  _112
REMARK   45  A    between atoms: _112  and  _113
REMARK   46  A    between atoms: _115  and  _117
REMARK   47  A    between atoms: _117  and  _118
REMARK   48  A    between atoms: _117  and  _120
REMARK   49  A    between atoms: _120  and  _121
REMARK   50  A    between atoms: _123  and  _125
REMARK   51  A    between atoms: _125  and  _126
REMARK   52  A    between atoms: _125  and  _128
REMARK   53  A    between atoms: _128  and  _129
REMARK   54  A    between atoms: _134  and  _136
REMARK   55  A    between atoms: _136  and  _137
REMARK   56  A    between atoms: _136  and  _139
REMARK   57  A    between atoms: _139  and  _140
REMARK   58  A    between atoms: _150  and  _152
REMARK   59  A    between atoms: _152  and  _153
REMARK   60  A    between atoms: _152  and  _155
REMARK   61  A    between atoms: _155  and  _156
REMARK   62  A    between atoms: _159  and  _161
REMARK   63  A    between atoms: _161  and  _162
REMARK   64  A    between atoms: _161  and  _164
REMARK   65  A    between atoms: _164  and  _165
REMARK   66  A    between atoms: _165  and  _166
REMARK   67  A    between atoms: _166  and  _167
REMARK   68  A    between atoms: _176  and  _178
REMARK   69  A    between atoms: _178  and  _179
REMARK   70  A    between atoms: _178  and  _181
REMARK   71  A    between atoms: _181  and  _182
REMARK   72  A    between atoms: _187  and  _188
REMARK   73  A    between atoms: _190  and  _192
REMARK   74  A    between atoms: _192  and  _193
REMARK   75  A    between atoms: _192  and  _195
REMARK   76  A    between atoms: _195  and  _196
REMARK   77  A    between atoms: _198  and  _200
REMARK   78  A    between atoms: _200  and  _201
REMARK   79  A    between atoms: _200  and  _203
REMARK   80  A    between atoms: _203  and  _204
REMARK   81  A    between atoms: _207  and  _209
REMARK   82  A    between atoms: _209  and  _210
REMARK   83  A    between atoms: _212  and  _214
REMARK   84  A    between atoms: _214  and  _215
REMARK   85  A    between atoms: _214  and  _217
REMARK   86  A    between atoms: _221  and  _222
REMARK   87  A    between atoms: _227  and  _229
REMARK   88  A    between atoms: _229  and  _230
REMARK   89  A    between atoms: _233  and  _235
REMARK   90  A    between atoms: _235  and  _236
REMARK   91  A    between atoms: _235  and  _238
REMARK   92  A    between atoms: _238  and  _239
REMARK   93  A    between atoms: _243  and  _244
REMARK   94  A    between atoms: _249  and  _251
REMARK   95  A    between atoms: _251  and  _252
REMARK   96  A    between atoms: _251  and  _254
REMARK   97  A    between atoms: _254  and  _255
REMARK   98  A    between atoms: _261  and  _263
REMARK   99  A    between atoms: _263  and  _264
REMARK  100  A    between atoms: _263  and  _266
REMARK  101  A    between atoms: _266  and  _267
REMARK  102  A    between atoms: _267  and  _268
REMARK  103  A    between atoms: _270  and  _272
REMARK  104  A    between atoms: _272  and  _273
REMARK  105  A    between atoms: _272  and  _275
REMARK  106  A    between atoms: _275  and  _276
REMARK  107  A    between atoms: _279  and  _281
REMARK  108  A    between atoms: _281  and  _282
REMARK  109  A    between atoms: _285  and  _287
REMARK  110  A    between atoms: _287  and  _288
REMARK  111  A    between atoms: _287  and  _290
REMARK  112  A    between atoms: _290  and  _291
REMARK  113  A    between atoms: _291  and  _292
REMARK  114  A    between atoms: _295  and  _297
REMARK  115  A    between atoms: _297  and  _298
REMARK  116  A    between atoms: _297  and  _300
REMARK  117  A    between atoms: _300  and  _301
REMARK  118  A    between atoms: _307  and  _309
REMARK  119  A    between atoms: _309  and  _310
REMARK  120  A    between atoms: _312  and  _314
REMARK  121  A    between atoms: _314  and  _315
REMARK  122  A    between atoms: _314  and  _317
REMARK  123  A    between atoms: _320  and  _322
REMARK  124  A    between atoms: _322  and  _323
REMARK  125  A    between atoms: _322  and  _325
REMARK  126  A    between atoms: _328  and  _330
REMARK  127  A    between atoms: _330  and  _331
REMARK  128  A    between atoms: _333  and  _335
REMARK  129  A    between atoms: _335  and  _336
REMARK  130  A    between atoms: _335  and  _338
REMARK  131  A    between atoms: _338  and  _339
REMARK  132  A    between atoms: _339  and  _340
REMARK  133  A    between atoms: _342  and  _344
REMARK  134  A    between atoms: _344  and  _345
REMARK  135  A    between atoms: _344  and  _347
REMARK  136  A    between atoms: _347  and  _348
REMARK  137  A    between atoms: _353  and  _354
REMARK  138  A    between atoms: _356  and  _358
REMARK  139  A    between atoms: _358  and  _359
REMARK  140  A    between atoms: _358  and  _361
REMARK  141  A    between atoms: _361  and  _362
REMARK  142  A    between atoms: _365  and  _367
REMARK  143  A    between atoms: _367  and  _368
REMARK  144  A    between atoms: _367  and  _370
REMARK  145  A    between atoms: _373  and  _375
REMARK  146  A    between atoms: _375  and  _376
REMARK  147  A    between atoms: _375  and  _378
REMARK  148  A    between atoms: _378  and  _379
REMARK  149  A    between atoms: _382  and  _384
REMARK  150  A    between atoms: _384  and  _385
REMARK  151  A    between atoms: _384  and  _387
REMARK  152  A    between atoms: _387  and  _388
REMARK  153  A    between atoms: _391  and  _393
REMARK  154  A    between atoms: _393  and  _394
REMARK  155  A    between atoms: _396  and  _398
REMARK  156  A    between atoms: _398  and  _399
REMARK  157  A    between atoms: _402  and  _404
REMARK  158  A    between atoms: _404  and  _405
REMARK  159  A    between atoms: _404  and  _407
REMARK  160  A    between atoms: _407  and  _408
REMARK  161  A    between atoms: _410  and  _412
REMARK  162  A    between atoms: _412  and  _413
REMARK  163  A    between atoms: _412  and  _415
REMARK  164  A    between atoms: _415  and  _416
REMARK  165  A    between atoms: _421  and  _422
REMARK  166  A    between atoms: _424  and  _426
REMARK  167  A    between atoms: _426  and  _427
REMARK  168  A    between atoms: _426  and  _429
REMARK  169  A    between atoms: _429  and  _430
REMARK  170  A    between atoms: _433  and  _435
REMARK  171  A    between atoms: _435  and  _436
REMARK  172  A    between atoms: _435  and  _438
REMARK  173  A    between atoms: _438  and  _439
REMARK  174  A    between atoms: _441  and  _443
REMARK  175  A    between atoms: _443  and  _444
REMARK  176  A    between atoms: _446  and  _448
REMARK  177  A    between atoms: _448  and  _449
REMARK  178  A    between atoms: _448  and  _451
REMARK  179  A    between atoms: _451  and  _452
REMARK  180  A    between atoms: _457  and  _459
REMARK  181  A    between atoms: _459  and  _460
REMARK  182  A    between atoms: _463  and  _465
REMARK  183  A    between atoms: _465  and  _466
REMARK  184  A    between atoms: _465  and  _468
REMARK  185  A    between atoms: _468  and  _469
REMARK  186  A    between atoms: _469  and  _470
REMARK  187  A    between atoms: _472  and  _474
REMARK  188  A    between atoms: _474  and  _475
REMARK  189  A    between atoms: _474  and  _477
REMARK  190  A    between atoms: _477  and  _478
REMARK  191  A    between atoms: _481  and  _483
REMARK  192  A    between atoms: _483  and  _484
REMARK  193  A    between atoms: _483  and  _486
REMARK  194  A    between atoms: _486  and  _487
REMARK  195  A    between atoms: _490  and  _492
REMARK  196  A    between atoms: _492  and  _493
REMARK  197  A    between atoms: _496  and  _498
REMARK  198  A    between atoms: _498  and  _499
REMARK                            x       y       z     vdW  Elec       q    Type
REMARK                         _______ _______ _______ _____ _____    ______ ____
ROOT
ATOM      1  CA  ALA A   1      36.346  69.652  39.992  0.00  0.00    +0.133 C 
ATOM      2  CB  ALA A   1      36.363  68.141  40.102  0.00  0.00    +0.027 C 
ENDROOT
BRANCH   1   3
ATOM      3  N   ALA A   1      37.321  70.125  39.016  0.00  0.00    -0.239 NA
ATOM      4  H   ALA A   1      38.335  70.077  39.240  0.00  0.00    +0.142 HD
ENDBRANCH   1   3
BRANCH   1   5
ATOM      5  C   ALA A   1      36.695  70.296  41.322  0.00  0.00    +0.224 C 
ATOM      6  O   ALA A   1      37.858  70.278  41.727  0.00  0.00    -0.287 OA
ENDBRANCH   1   5
TORSDOF 2
REMARK  Name = ../refined-set-2016/4s1g/4s1g_pocket.pdb
REMARK  198 active torsions:
REMARK  status: ('A' for Active; 'I' for Inactive)
REMARK    1  A    between atoms: _1  and  _3
REMARK    2  A    between atoms: _3  and  _4
REMARK    3  A    between atoms: _3  and  _6
REMARK    4  A    between atoms: _6  and  _7
REMARK    5  A    between atoms: _12  and  _13
REMARK    6  A    between atoms: _15  and  _17
REMARK    7  A    between atoms: _17  and  _18
REMARK    8  A    between atoms: _17  and  _20
REMARK    9  A    between atoms: _20  and  _21
REMARK   10  A    between atoms: _24  and  _26
REMARK   11  A    between atoms: _26  and  _27
REMARK   12  A    between atoms: _26  and  _29
REMARK   13  A    between atoms: _29  and  _30
REMARK   14  A    between atoms: _30  and  _31
REMARK   15  A    between atoms: _36  and  _38
REMARK   16  A    between atoms: _38  and  _39
REMARK   17  A    between atoms: _38  and  _41
REMARK   18  A    between atoms: _41  and  _42
REMARK   19  A    between atoms: _47  and  _48
REMARK   20  A    between atoms: _50  and  _52
REMARK   21  A    between atoms: _52  and  _53
REMARK   22  A    between atoms: _52  and  _55
REMARK   23  A    between atoms: _55  and  _56
REMARK   24  A    between atoms: _61  and  _62
REMARK   25  A    between atoms: _64  and  _66
REMARK   26  A    between atoms: _66  and  _67
REMARK   27  A    between atoms: _66  and  _69
REMARK   28  A    between atoms: _72  and  _74
REMARK   29  A    between atoms: _74  and  _75
REMARK   30  A    between atoms: _74  and  _77
REMARK   31  A    between atoms: _77  and  _78
REMARK   32  A    between atoms: _84  and  _86
REMARK   33  A    between atoms: _86  and  _87
REMARK   34  A    between atoms: _86  and  _89
REMARK   35  A    between atoms: _89  and  _90
REMARK   36  A    between atoms: _93  and  _95
REMARK   37  A    between atoms: _95  and  _96
REMARK   38  A    between atoms: _95  and  _98
REMARK   39  A    between atoms: _98  and  _99
REMARK   40  A    between atoms: _102  and  _104
REMARK   41  A    between atoms: _104  and  _105
REMARK   42  A    between atoms: _107  and  _109
REMARK   43  A    between atoms: _109  and  _110
REMARK   44  A    between atoms: _109  and  _112
REMARK   45  A    between atoms: _112  and  _113
REMARK   46  A    between atoms: _115  and  _117
REMARK   47  A    between atoms: _117  and  _118
REMARK   48  A    between atoms: _117  and  _120
REMARK   49  A    between atoms: _120  and  _121
REMARK   50  A    between atoms: _123  and  _125
REMARK   51  A    between atoms: _125  and  _126
REMARK   52  A    between atoms: _125  and  _128
REMARK   53  A    between atoms: _128  and  _129
REMARK   54  A    between atoms: _134  and  _136
REMARK   55  A    between atoms: _136  and  _137
REMARK   56  A    between atoms: _136  and  _139
REMARK   57  A    between atoms: _139  and  _140
REMARK   58  A    between atoms: _150  and  _152
REMARK   59  A    between atoms: _152  and  _153
REMARK   60  A    between atoms: _152  and  _155
REMARK   61  A    between atoms: _155  and  _156
REMARK   62  A    between atoms: _159  and  _161
REMARK   63  A    between atoms: _161  and  _162
REMARK   64  A    between atoms: _161  and  _164
REMARK   65  A    between atoms: _164  and  _165
REMARK   66  A    between atoms: _165  and  _166
REMARK   67  A    between atoms: _166  and  _167
REMARK   68  A    between atoms: _176  and  _178
REMARK   69  A    between atoms: _178  and  _179
REMARK   70  A    between atoms: _178  and  _181
REMARK   71  A    between atoms: _181  and  _182
REMARK   72  A    between atoms: _187  and  _188
REMARK   73  A    between atoms: _190  and  _192
REMARK   74  A    between atoms: _192  and  _193
REMARK   75  A    between atoms: _192  and  _195
REMARK   76  A    between atoms: _195  and  _196
REMARK   77  A    between atoms: _198  and  _200
REMARK   78  A    between atoms: _200  and  _201
REMARK   79  A    between atoms: _200  and  _203
REMARK   80  A    between atoms: _203  and  _204
REMARK   81  A    between atoms: _207  and  _209
REMARK   82  A    between atoms: _209  and  _210
REMARK   83  A    between atoms: _212  and  _214
REMARK   84  A    between atoms: _214  and  _215
REMARK   85  A    between atoms: _214  and  _217
REMARK   86  A    between atoms: _221  and  _222
REMARK   87  A    between atoms: _227  and  _229
REMARK   88  A    between atoms: _229  and  _230
REMARK   89  A    between atoms: _233  and  _235
REMARK   90  A    between atoms: _235  and  _236
REMARK   91  A    between atoms: _235  and  _238
REMARK   92  A    between atoms: _238  and  _239
REMARK   93  A    between atoms: _243  and  _244
REMARK   94  A    between atoms: _249  and  _251
REMARK   95  A    between atoms: _251  and  _252
REMARK   96  A    between atoms: _251  and  _254
REMARK   97  A    between atoms: _254  and  _255
REMARK   98  A    between atoms: _261  and  _263
REMARK   99  A    between atoms: _263  and  _264
REMARK  100  A    between atoms: _263  and  _266
REMARK  101  A    between atoms: _266  and  _267
REMARK  102  A    between atoms: _267  and  _268
REMARK  103  A    between atoms: _270  and  _272
REMARK  104  A    between atoms: _272  and  _273
REMARK  105  A    between atoms: _272  and  _275
REMARK  106  A    between atoms: _275  and  _276
REMARK  107  A    between atoms: _279  and  _281
REMARK  108  A    between atoms: _281  and  _282
REMARK  109  A    between atoms: _285  and  _287
REMARK  110  A    between atoms: _287  and  _288
REMARK  111  A    between atoms: _287  and  _290
REMARK  112  A    between atoms: _290  and  _291
REMARK  113  A    between atoms: _291  and  _292
REMARK  114  A    between atoms: _295  and  _297
REMARK  115  A    between atoms: _297  and  _298
REMARK  116  A    between atoms: _297  and  _300
REMARK  117  A    between atoms: _300  and  _301
REMARK  118  A    between atoms: _307  and  _309
REMARK  119  A    between atoms: _309  and  _310
REMARK  120  A    between atoms: _312  and  _314
REMARK  121  A    between atoms: _314  and  _315
REMARK  122  A    between atoms: _314  and  _317
REMARK  123  A    between atoms: _320  and  _322
REMARK  124  A    between atoms: _322  and  _323
REMARK  125  A    between atoms: _322  and  _325
REMARK  126  A    between atoms: _328  and  _330
REMARK  127  A    between atoms: _330  and  _331
REMARK  128  A    between atoms: _333  and  _335
REMARK  129  A    between atoms: _335  and  _336
REMARK  130  A    between atoms: _335  and  _338
REMARK  131  A    between atoms: _338  and  _339
REMARK  132  A    between atoms: _339  and  _340
REMARK  133  A    between atoms: _342  and  _344
REMARK  134  A    between atoms: _344  and  _345
REMARK  135  A    between atoms: _344  and  _347
REMARK  136  A    between atoms: _347  and  _348
REMARK  137  A    between atoms: _353  and  _354
REMARK  138  A    between atoms: _356  and  _358
REMARK  139  A    between atoms: _358  and  _359
REMARK  140  A    between atoms: _358  and  _361
REMARK  141  A    between atoms: _361  and  _362
REMARK  142  A    between atoms: _365  and  _367
REMARK  143  A    between atoms: _367  and  _368
REMARK  144  A    between atoms: _367  and  _370
REMARK  145  A    between atoms: _373  and  _375
REMARK  146  A    between atoms: _375  and  _376
REMARK  147  A    between atoms: _375  and  _378
REMARK  148  A    between atoms: _378  and  _379
REMARK  149  A    between atoms: _382  and  _384
REMARK  150  A    between atoms: _384  and  _385
REMARK  151  A    between atoms: _384  and  _387
REMARK  152  A    between atoms: _387  and  _388
REMARK  153  A    between atoms: _391  and  _393
REMARK  154  A    between atoms: _393  and  _394
REMARK  155  A    between atoms: _396  and  _398
REMARK  156  A    between atoms: _398  and  _399
REMARK  157  A    between atoms: _402  and  _404
REMARK  158  A    between atoms: _404  and  _405
REMARK  159  A    between atoms: _404  and  _407
REMARK  160  A    between atoms: _407  and  _408
REMARK  161  A    between atoms: _410  and  _412
REMARK  162  A    between atoms: _412  and  _413
REMARK  163  A    between atoms: _412  and  _415
REMARK  164  A    between atoms: _415  and  _416
REMARK  165  A    between atoms: _421  and  _422
REMARK  166  A    between atoms: _424  and  _426
REMARK  167  A    between atoms: _426  and  _427
REMARK  168  A    between atoms: _426  and  _429
REMARK  169  A    between atoms: _429  and  _430
REMARK  170  A    between atoms: _433  and  _435
REMARK  171  A    between atoms: _435  and  _436
REMARK  172  A    between atoms: _435  and  _438
REMARK  173  A    between atoms: _438  and  _439
REMARK  174  A    between atoms: _441  and  _443
REMARK  175  A    between atoms: _443  and  _444
REMARK  176  A    between atoms: _446  and  _448
REMARK  177  A    between atoms: _448  and  _449
REMARK  178  A    between atoms: _448  and  _451
REMARK  179  A    between atoms: _451  and  _452
REMARK  180  A    between atoms: _457  and  _459
REMARK  181  A    between atoms: _459  and  _460
REMARK  182  A    between atoms: _463  and  _465
REMARK  183  A    between atoms: _465  and  _466
REMARK  184  A    between atoms: _465  and  _468
REMARK  185  A    between atoms: _468  and  _469
REMARK  186  A    between atoms: _469  and  _470
REMARK  187  A    between atoms: _472  and  _474
REMARK  188  A    between atoms: _474  and  _475
REMARK  189  A    between atoms: _474  and  _477
REMARK  190  A    between atoms: _477  and  _478
REMARK  191  A    between atoms: _481  and  _483
REMARK  192  A    between atoms: _483  and  _484
REMARK  193  A    between atoms: _483  and  _486
REMARK  194  A    between atoms: _486  and  _487
REMARK  195  A    between atoms: _490  and  _492
REMARK  196  A    between atoms: _492  and  _493
REMARK  197  A    between atoms: _496  and  _498
REMARK  198  A    between atoms: _498  and  _499
REMARK                            x       y       z     vdW  Elec       q    Type
REMARK                         _______ _______ _______ _____ _____    ______ ____
ROOT
ATOM      1  CA  ALA A   1      36.186  68.743  49.725  0.00  0.00    +0.133 C 
ATOM      2  CB  ALA A   1      36.472  67.496  50.551  0.00  0.00    +0.027 C 
ENDROOT
BRANCH   1   3
ATOM      3  N   ALA A   1      36.196  68.429  48.290  0.00  0.00    -0.239 NA
ATOM      4  H   ALA A   1      36.376  67.445  48.005  0.00  0.00    +0.142 HD
ENDBRANCH   1   3
BRANCH   1   5
ATOM      5  C   ALA A   1      37.118  69.892  50.116  0.00  0.00    +0.224 C 
ATOM      6  O   ALA A   1      36.727  70.713  50.941  0.00  0.00    -0.287 OA
ENDBRANCH   1   5
TORSDOF 2
REMARK  Name = ../refined-set-2016/4s1g/4s1g_pocket.pdb
REMARK  198 active torsions:
REMARK  status: ('A' for Active; 'I' for Inactive)
REMARK    1  A    between atoms: _1  and  _3
REMARK    2  A    between atoms: _3  and  _4
REMARK    3  A    between atoms: _3  and  _6
REMARK    4  A    between atoms: _6  and  _7
REMARK    5  A    between atoms: _12  and  _13
REMARK    6  A    between atoms: _15  and  _17
REMARK    7  A    between atoms: _17  and  _18
REMARK    8  A    between atoms: _17  and  _20
REMARK    9  A    between atoms: _20  and  _21
REMARK   10  A    between atoms: _24  and  _26
REMARK   11  A    between atoms: _26  and  _27
REMARK   12  A    between atoms: _26  and  _29
REMARK   13  A    between atoms: _29  and  _30
REMARK   14  A    between atoms: _30  and  _31
REMARK   15  A    between atoms: _36  and  _38
REMARK   16  A    between atoms: _38  and  _39
REMARK   17  A    between atoms: _38  and  _41
REMARK   18  A    between atoms: _41  and  _42
REMARK   19  A    between atoms: _47  and  _48
REMARK   20  A    between atoms: _50  and  _52
REMARK   21  A    between atoms: _52  and  _53
REMARK   22  A    between atoms: _52  and  _55
REMARK   23  A    between atoms: _55  and  _56
REMARK   24  A    between atoms: _61  and  _62
REMARK   25  A    between atoms: _64  and  _66
REMARK   26  A    between atoms: _66  and  _67
REMARK   27  A    between atoms: _66  and  _69
REMARK   28  A    between atoms: _72  and  _74
REMARK   29  A    between atoms: _74  and  _75
REMARK   30  A    between atoms: _74  and  _77
REMARK   31  A    between atoms: _77  and  _78
REMARK   32  A    between atoms: _84  and  _86
REMARK   33  A    between atoms: _86  and  _87
REMARK   34  A    between atoms: _86  and  _89
REMARK   35  A    between atoms: _89  and  _90
REMARK   36  A    between atoms: _93  and  _95
REMARK   37  A    between atoms: _95  and  _96
REMARK   38  A    between atoms: _95  and  _98
REMARK   39  A    between atoms: _98  and  _99
REMARK   40  A    between atoms: _102  and  _104
REMARK   41  A    between atoms: _104  and  _105
REMARK   42  A    between atoms: _107  and  _109
REMARK   43  A    between atoms: _109  and  _110
REMARK   44  A    between atoms: _109  and  _112
REMARK   45  A    between atoms: _112  and  _113
REMARK   46  A    between atoms: _115  and  _117
REMARK   47  A    between atoms: _117  and  _118
REMARK   48  A    between atoms: _117  and  _120
REMARK   49  A    between atoms: _120  and  _121
REMARK   50  A    between atoms: _123  and  _125
REMARK   51  A    between atoms: _125  and  _126
REMARK   52  A    between atoms: _125  and  _128
REMARK   53  A    between atoms: _128  and  _129
REMARK   54  A    between atoms: _134  and  _136
REMARK   55  A    between atoms: _136  and  _137
REMARK   56  A    between atoms: _136  and  _139
REMARK   57  A    between atoms: _139  and  _140
REMARK   58  A    between atoms: _150  and  _152
REMARK   59  A    between atoms: _152  and  _153
REMARK   60  A    between atoms: _152  and  _155
REMARK   61  A    between atoms: _155  and  _156
REMARK   62  A    between atoms: _159  and  _161
REMARK   63  A    between atoms: _161  and  _162
REMARK   64  A    between atoms: _161  and  _164
REMARK   65  A    between atoms: _164  and  _165
REMARK   66  A    between atoms: _165  and  _166
REMARK   67  A    between atoms: _166  and  _167
REMARK   68  A    between atoms: _176  and  _178
REMARK   69  A    between atoms: _178  and  _179
REMARK   70  A    between atoms: _178  and  _181
REMARK   71  A    between atoms: _181  and  _182
REMARK   72  A    between atoms: _187  and  _188
REMARK   73  A    between atoms: _190  and  _192
REMARK   74  A    between atoms: _192  and  _193
REMARK   75  A    between atoms: _192  and  _195
REMARK   76  A    between atoms: _195  and  _196
REMARK   77  A    between atoms: _198  and  _200
REMARK   78  A    between atoms: _200  and  _201
REMARK   79  A    between atoms: _200  and  _203
REMARK   80  A    between atoms: _203  and  _204
REMARK   81  A    between atoms: _207  and  _209
REMARK   82  A    between atoms: _209  and  _210
REMARK   83  A    between atoms: _212  and  _214
REMARK   84  A    between atoms: _214  and  _215
REMARK   85  A    between atoms: _214  and  _217
REMARK   86  A    between atoms: _221  and  _222
REMARK   87  A    between atoms: _227  and  _229
REMARK   88  A    between atoms: _229  and  _230
REMARK   89  A    between atoms: _233  and  _235
REMARK   90  A    between atoms: _235  and  _236
REMARK   91  A    between atoms: _235  and  _238
REMARK   92  A    between atoms: _238  and  _239
REMARK   93  A    between atoms: _243  and  _244
REMARK   94  A    between atoms: _249  and  _251
REMARK   95  A    between atoms: _251  and  _252
REMARK   96  A    between atoms: _251  and  _254
REMARK   97  A    between atoms: _254  and  _255
REMARK   98  A    between atoms: _261  and  _263
REMARK   99  A    between atoms: _263  and  _264
REMARK  100  A    between atoms: _263  and  _266
REMARK  101  A    between atoms: _266  and  _267
REMARK  102  A    between atoms: _267  and  _268
REMARK  103  A    between atoms: _270  and  _272
REMARK  104  A    between atoms: _272  and  _273
REMARK  105  A    between atoms: _272  and  _275
REMARK  106  A    between atoms: _275  and  _276
REMARK  107  A    between atoms: _279  and  _281
REMARK  108  A    between atoms: _281  and  _282
REMARK  109  A    between atoms: _285  and  _287
REMARK  110  A    between atoms: _287  and  _288
REMARK  111  A    between atoms: _287  and  _290
REMARK  112  A    between atoms: _290  and  _291
REMARK  113  A    between atoms: _291  and  _292
REMARK  114  A    between atoms: _295  and  _297
REMARK  115  A    between atoms: _297  and  _298
REMARK  116  A    between atoms: _297  and  _300
REMARK  117  A    between atoms: _300  and  _301
REMARK  118  A    between atoms: _307  and  _309
REMARK  119  A    between atoms: _309  and  _310
REMARK  120  A    between atoms: _312  and  _314
REMARK  121  A    between atoms: _314  and  _315
REMARK  122  A    between atoms: _314  and  _317
REMARK  123  A    between atoms: _320  and  _322
REMARK  124  A    between atoms: _322  and  _323
REMARK  125  A    between atoms: _322  and  _325
REMARK  126  A    between atoms: _328  and  _330
REMARK  127  A    between atoms: _330  and  _331
REMARK  128  A    between atoms: _333  and  _335
REMARK  129  A    between atoms: _335  and  _336
REMARK  130  A    between atoms: _335  and  _338
REMARK  131  A    between atoms: _338  and  _339
REMARK  132  A    between atoms: _339  and  _340
REMARK  133  A    between atoms: _342  and  _344
REMARK  134  A    between atoms: _344  and  _345
REMARK  135  A    between atoms: _344  and  _347
REMARK  136  A    between atoms: _347  and  _348
REMARK  137  A    between atoms: _353  and  _354
REMARK  138  A    between atoms: _356  and  _358
REMARK  139  A    between atoms: _358  and  _359
REMARK  140  A    between atoms: _358  and  _361
REMARK  141  A    between atoms: _361  and  _362
REMARK  142  A    between atoms: _365  and  _367
REMARK  143  A    between atoms: _367  and  _368
REMARK  144  A    between atoms: _367  and  _370
REMARK  145  A    between atoms: _373  and  _375
REMARK  146  A    between atoms: _375  and  _376
REMARK  147  A    between atoms: _375  and  _378
REMARK  148  A    between atoms: _378  and  _379
REMARK  149  A    between atoms: _382  and  _384
REMARK  150  A    between atoms: _384  and  _385
REMARK  151  A    between atoms: _384  and  _387
REMARK  152  A    between atoms: _387  and  _388
REMARK  153  A    between atoms: _391  and  _393
REMARK  154  A    between atoms: _393  and  _394
REMARK  155  A    between atoms: _396  and  _398
REMARK  156  A    between atoms: _398  and  _399
REMARK  157  A    between atoms: _402  and  _404
REMARK  158  A    between atoms: _404  and  _405
REMARK  159  A    between atoms: _404  and  _407
REMARK  160  A    between atoms: _407  and  _408
REMARK  161  A    between atoms: _410  and  _412
REMARK  162  A    between atoms: _412  and  _413
REMARK  163  A    between atoms: _412  and  _415
REMARK  164  A    between atoms: _415  and  _416
REMARK  165  A    between atoms: _421  and  _422
REMARK  166  A    between atoms: _424  and  _426
REMARK  167  A    between atoms: _426  and  _427
REMARK  168  A    between atoms: _426  and  _429
REMARK  169  A    between atoms: _429  and  _430
REMARK  170  A    between atoms: _433  and  _435
REMARK  171  A    between atoms: _435  and  _436
REMARK  172  A    between atoms: _435  and  _438
REMARK  173  A    between atoms: _438  and  _439
REMARK  174  A    between atoms: _441  and  _443
REMARK  175  A    between atoms: _443  and  _444
REMARK  176  A    between atoms: _446  and  _448
REMARK  177  A    between atoms: _448  and  _449
REMARK  178  A    between atoms: _448  and  _451
REMARK  179  A    between atoms: _451  and  _452
REMARK  180  A    between atoms: _457  and  _459
REMARK  181  A    between atoms: _459  and  _460
REMARK  182  A    between atoms: _463  and  _465
REMARK  183  A    between atoms: _465  and  _466
REMARK  184  A    between atoms: _465  and  _468
REMARK  185  A    between atoms: _468  and  _469
REMARK  186  A    between atoms: _469  and  _470
REMARK  187  A    between atoms: _472  and  _474
REMARK  188  A    between atoms: _474  and  _475
REMARK  189  A    between atoms: _474  and  _477
REMARK  190  A    between atoms: _477  and  _478
REMARK  191  A    between atoms: _481  and  _483
REMARK  192  A    between atoms: _483  and  _484
REMARK  193  A    between atoms: _483  and  _486
REMARK  194  A    between atoms: _486  and  _487
REMARK  195  A    between atoms: _490  and  _492
REMARK  196  A    between atoms: _492  and  _493
REMARK  197  A    between atoms: _496  and  _498
REMARK  198  A    between atoms: _498  and  _499
REMARK                            x       y       z     vdW  Elec       q    Type
REMARK                         _______ _______ _______ _____ _____    ______ ____
ROOT
ATOM      1  O   HOH     1      33.185  51.460  49.955  0.00  0.00    +0.000 OA
ENDROOT
TORSDOF 0
REMARK  Name = ../refined-set-2016/4s1g/4s1g_pocket.pdb
REMARK  198 active torsions:
REMARK  status: ('A' for Active; 'I' for Inactive)
REMARK    1  A    between atoms: _1  and  _3
REMARK    2  A    between atoms: _3  and  _4
REMARK    3  A    between atoms: _3  and  _6
REMARK    4  A    between atoms: _6  and  _7
REMARK    5  A    between atoms: _12  and  _13
REMARK    6  A    between atoms: _15  and  _17
REMARK    7  A    between atoms: _17  and  _18
REMARK    8  A    between atoms: _17  and  _20
REMARK    9  A    between atoms: _20  and  _21
REMARK   10  A    between atoms: _24  and  _26
REMARK   11  A    between atoms: _26  and  _27
REMARK   12  A    between atoms: _26  and  _29
REMARK   13  A    between atoms: _29  and  _30
REMARK   14  A    between atoms: _30  and  _31
REMARK   15  A    between atoms: _36  and  _38
REMARK   16  A    between atoms: _38  and  _39
REMARK   17  A    between atoms: _38  and  _41
REMARK   18  A    between atoms: _41  and  _42
REMARK   19  A    between atoms: _47  and  _48
REMARK   20  A    between atoms: _50  and  _52
REMARK   21  A    between atoms: _52  and  _53
REMARK   22  A    between atoms: _52  and  _55
REMARK   23  A    between atoms: _55  and  _56
REMARK   24  A    between atoms: _61  and  _62
REMARK   25  A    between atoms: _64  and  _66
REMARK   26  A    between atoms: _66  and  _67
REMARK   27  A    between atoms: _66  and  _69
REMARK   28  A    between atoms: _72  and  _74
REMARK   29  A    between atoms: _74  and  _75
REMARK   30  A    between atoms: _74  and  _77
REMARK   31  A    between atoms: _77  and  _78
REMARK   32  A    between atoms: _84  and  _86
REMARK   33  A    between atoms: _86  and  _87
REMARK   34  A    between atoms: _86  and  _89
REMARK   35  A    between atoms: _89  and  _90
REMARK   36  A    between atoms: _93  and  _95
REMARK   37  A    between atoms: _95  and  _96
REMARK   38  A    between atoms: _95  and  _98
REMARK   39  A    between atoms: _98  and  _99
REMARK   40  A    between atoms: _102  and  _104
REMARK   41  A    between atoms: _104  and  _105
REMARK   42  A    between atoms: _107  and  _109
REMARK   43  A    between atoms: _109  and  _110
REMARK   44  A    between atoms: _109  and  _112
REMARK   45  A    between atoms: _112  and  _113
REMARK   46  A    between atoms: _115  and  _117
REMARK   47  A    between atoms: _117  and  _118
REMARK   48  A    between atoms: _117  and  _120
REMARK   49  A    between atoms: _120  and  _121
REMARK   50  A    between atoms: _123  and  _125
REMARK   51  A    between atoms: _125  and  _126
REMARK   52  A    between atoms: _125  and  _128
REMARK   53  A    between atoms: _128  and  _129
REMARK   54  A    between atoms: _134  and  _136
REMARK   55  A    between atoms: _136  and  _137
REMARK   56  A    between atoms: _136  and  _139
REMARK   57  A    between atoms: _139  and  _140
REMARK   58  A    between atoms: _150  and  _152
REMARK   59  A    between atoms: _152  and  _153
REMARK   60  A    between atoms: _152  and  _155
REMARK   61  A    between atoms: _155  and  _156
REMARK   62  A    between atoms: _159  and  _161
REMARK   63  A    between atoms: _161  and  _162
REMARK   64  A    between atoms: _161  and  _164
REMARK   65  A    between atoms: _164  and  _165
REMARK   66  A    between atoms: _165  and  _166
REMARK   67  A    between atoms: _166  and  _167
REMARK   68  A    between atoms: _176  and  _178
REMARK   69  A    between atoms: _178  and  _179
REMARK   70  A    between atoms: _178  and  _181
REMARK   71  A    between atoms: _181  and  _182
REMARK   72  A    between atoms: _187  and  _188
REMARK   73  A    between atoms: _190  and  _192
REMARK   74  A    between atoms: _192  and  _193
REMARK   75  A    between atoms: _192  and  _195
REMARK   76  A    between atoms: _195  and  _196
REMARK   77  A    between atoms: _198  and  _200
REMARK   78  A    between atoms: _200  and  _201
REMARK   79  A    between atoms: _200  and  _203
REMARK   80  A    between atoms: _203  and  _204
REMARK   81  A    between atoms: _207  and  _209
REMARK   82  A    between atoms: _209  and  _210
REMARK   83  A    between atoms: _212  and  _214
REMARK   84  A    between atoms: _214  and  _215
REMARK   85  A    between atoms: _214  and  _217
REMARK   86  A    between atoms: _221  and  _222
REMARK   87  A    between atoms: _227  and  _229
REMARK   88  A    between atoms: _229  and  _230
REMARK   89  A    between atoms: _233  and  _235
REMARK   90  A    between atoms: _235  and  _236
REMARK   91  A    between atoms: _235  and  _238
REMARK   92  A    between atoms: _238  and  _239
REMARK   93  A    between atoms: _243  and  _244
REMARK   94  A    between atoms: _249  and  _251
REMARK   95  A    between atoms: _251  and  _252
REMARK   96  A    between atoms: _251  and  _254
REMARK   97  A    between atoms: _254  and  _255
REMARK   98  A    between atoms: _261  and  _263
REMARK   99  A    between atoms: _263  and  _264
REMARK  100  A    between atoms: _263  and  _266
REMARK  101  A    between atoms: _266  and  _267
REMARK  102  A    between atoms: _267  and  _268
REMARK  103  A    between atoms: _270  and  _272
REMARK  104  A    between atoms: _272  and  _273
REMARK  105  A    between atoms: _272  and  _275
REMARK  106  A    between atoms: _275  and  _276
REMARK  107  A    between atoms: _279  and  _281
REMARK  108  A    between atoms: _281  and  _282
REMARK  109  A    between atoms: _285  and  _287
REMARK  110  A    between atoms: _287  and  _288
REMARK  111  A    between atoms: _287  and  _290
REMARK  112  A    between atoms: _290  and  _291
REMARK  113  A    between atoms: _291  and  _292
REMARK  114  A    between atoms: _295  and  _297
REMARK  115  A    between atoms: _297  and  _298
REMARK  116  A    between atoms: _297  and  _300
REMARK  117  A    between atoms: _300  and  _301
REMARK  118  A    between atoms: _307  and  _309
REMARK  119  A    between atoms: _309  and  _310
REMARK  120  A    between atoms: _312  and  _314
REMARK  121  A    between atoms: _314  and  _315
REMARK  122  A    between atoms: _314  and  _317
REMARK  123  A    between atoms: _320  and  _322
REMARK  124  A    between atoms: _322  and  _323
REMARK  125  A    between atoms: _322  and  _325
REMARK  126  A    between atoms: _328  and  _330
REMARK  127  A    between atoms: _330  and  _331
REMARK  128  A    between atoms: _333  and  _335
REMARK  129  A    between atoms: _335  and  _336
REMARK  130  A    between atoms: _335  and  _338
REMARK  131  A    between atoms: _338  and  _339
REMARK  132  A    between atoms: _339  and  _340
REMARK  133  A    between atoms: _342  and  _344
REMARK  134  A    between atoms: _344  and  _345
REMARK  135  A    between atoms: _344  and  _347
REMARK  136  A    between atoms: _347  and  _348
REMARK  137  A    between atoms: _353  and  _354
REMARK  138  A    between atoms: _356  and  _358
REMARK  139  A    between atoms: _358  and  _359
REMARK  140  A    between atoms: _358  and  _361
REMARK  141  A    between atoms: _361  and  _362
REMARK  142  A    between atoms: _365  and  _367
REMARK  143  A    between atoms: _367  and  _368
REMARK  144  A    between atoms: _367  and  _370
REMARK  145  A    between atoms: _373  and  _375
REMARK  146  A    between atoms: _375  and  _376
REMARK  147  A    between atoms: _375  and  _378
REMARK  148  A    between atoms: _378  and  _379
REMARK  149  A    between atoms: _382  and  _384
REMARK  150  A    between atoms: _384  and  _385
REMARK  151  A    between atoms: _384  and  _387
REMARK  152  A    between atoms: _387  and  _388
REMARK  153  A    between atoms: _391  and  _393
REMARK  154  A    between atoms: _393  and  _394
REMARK  155  A    between atoms: _396  and  _398
REMARK  156  A    between atoms: _398  and  _399
REMARK  157  A    between atoms: _402  and  _404
REMARK  158  A    between atoms: _404  and  _405
REMARK  159  A    between atoms: _404  and  _407
REMARK  160  A    between atoms: _407  and  _408
REMARK  161  A    between atoms: _410  and  _412
REMARK  162  A    between atoms: _412  and  _413
REMARK  163  A    between atoms: _412  and  _415
REMARK  164  A    between atoms: _415  and  _416
REMARK  165  A    between atoms: _421  and  _422
REMARK  166  A    between atoms: _424  and  _426
REMARK  167  A    between atoms: _426  and  _427
REMARK  168  A    between atoms: _426  and  _429
REMARK  169  A    between atoms: _429  and  _430
REMARK  170  A    between atoms: _433  and  _435
REMARK  171  A    between atoms: _435  and  _436
REMARK  172  A    between atoms: _435  and  _438
REMARK  173  A    between atoms: _438  and  _439
REMARK  174  A    between atoms: _441  and  _443
REMARK  175  A    between atoms: _443  and  _444
REMARK  176  A    between atoms: _446  and  _448
REMARK  177  A    between atoms: _448  and  _449
REMARK  178  A    between atoms: _448  and  _451
REMARK  179  A    between atoms: _451  and  _452
REMARK  180  A    between atoms: _457  and  _459
REMARK  181  A    between atoms: _459  and  _460
REMARK  182  A    between atoms: _463  and  _465
REMARK  183  A    between atoms: _465  and  _466
REMARK  184  A    between atoms: _465  and  _468
REMARK  185  A    between atoms: _468  and  _469
REMARK  186  A    between atoms: _469  and  _470
REMARK  187  A    between atoms: _472  and  _474
REMARK  188  A    between atoms: _474  and  _475
REMARK  189  A    between atoms: _474  and  _477
REMARK  190  A    between atoms: _477  and  _478
REMARK  191  A    between atoms: _481  and  _483
REMARK  192  A    between atoms: _483  and  _484
REMARK  193  A    between atoms: _483  and  _486
REMARK  194  A    between atoms: _486  and  _487
REMARK  195  A    between atoms: _490  and  _492
REMARK  196  A    between atoms: _492  and  _493
REMARK  197  A    between atoms: _496  and  _498
REMARK  198  A    between atoms: _498  and  _499
REMARK                            x       y       z     vdW  Elec       q    Type
REMARK                         _______ _______ _______ _____ _____    ______ ____
ROOT
ATOM      1  O   HOH     1      35.712  53.462  35.444  0.00  0.00    +0.000 OA
ENDROOT
TORSDOF 0
REMARK  Name = ../refined-set-2016/4s1g/4s1g_pocket.pdb
REMARK  198 active torsions:
REMARK  status: ('A' for Active; 'I' for Inactive)
REMARK    1  A    between atoms: _1  and  _3
REMARK    2  A    between atoms: _3  and  _4
REMARK    3  A    between atoms: _3  and  _6
REMARK    4  A    between atoms: _6  and  _7
REMARK    5  A    between atoms: _12  and  _13
REMARK    6  A    between atoms: _15  and  _17
REMARK    7  A    between atoms: _17  and  _18
REMARK    8  A    between atoms: _17  and  _20
REMARK    9  A    between atoms: _20  and  _21
REMARK   10  A    between atoms: _24  and  _26
REMARK   11  A    between atoms: _26  and  _27
REMARK   12  A    between atoms: _26  and  _29
REMARK   13  A    between atoms: _29  and  _30
REMARK   14  A    between atoms: _30  and  _31
REMARK   15  A    between atoms: _36  and  _38
REMARK   16  A    between atoms: _38  and  _39
REMARK   17  A    between atoms: _38  and  _41
REMARK   18  A    between atoms: _41  and  _42
REMARK   19  A    between atoms: _47  and  _48
REMARK   20  A    between atoms: _50  and  _52
REMARK   21  A    between atoms: _52  and  _53
REMARK   22  A    between atoms: _52  and  _55
REMARK   23  A    between atoms: _55  and  _56
REMARK   24  A    between atoms: _61  and  _62
REMARK   25  A    between atoms: _64  and  _66
REMARK   26  A    between atoms: _66  and  _67
REMARK   27  A    between atoms: _66  and  _69
REMARK   28  A    between atoms: _72  and  _74
REMARK   29  A    between atoms: _74  and  _75
REMARK   30  A    between atoms: _74  and  _77
REMARK   31  A    between atoms: _77  and  _78
REMARK   32  A    between atoms: _84  and  _86
REMARK   33  A    between atoms: _86  and  _87
REMARK   34  A    between atoms: _86  and  _89
REMARK   35  A    between atoms: _89  and  _90
REMARK   36  A    between atoms: _93  and  _95
REMARK   37  A    between atoms: _95  and  _96
REMARK   38  A    between atoms: _95  and  _98
REMARK   39  A    between atoms: _98  and  _99
REMARK   40  A    between atoms: _102  and  _104
REMARK   41  A    between atoms: _104  and  _105
REMARK   42  A    between atoms: _107  and  _109
REMARK   43  A    between atoms: _109  and  _110
REMARK   44  A    between atoms: _109  and  _112
REMARK   45  A    between atoms: _112  and  _113
REMARK   46  A    between atoms: _115  and  _117
REMARK   47  A    between atoms: _117  and  _118
REMARK   48  A    between atoms: _117  and  _120
REMARK   49  A    between atoms: _120  and  _121
REMARK   50  A    between atoms: _123  and  _125
REMARK   51  A    between atoms: _125  and  _126
REMARK   52  A    between atoms: _125  and  _128
REMARK   53  A    between atoms: _128  and  _129
REMARK   54  A    between atoms: _134  and  _136
REMARK   55  A    between atoms: _136  and  _137
REMARK   56  A    between atoms: _136  and  _139
REMARK   57  A    between atoms: _139  and  _140
REMARK   58  A    between atoms: _150  and  _152
REMARK   59  A    between atoms: _152  and  _153
REMARK   60  A    between atoms: _152  and  _155
REMARK   61  A    between atoms: _155  and  _156
REMARK   62  A    between atoms: _159  and  _161
REMARK   63  A    between atoms: _161  and  _162
REMARK   64  A    between atoms: _161  and  _164
REMARK   65  A    between atoms: _164  and  _165
REMARK   66  A    between atoms: _165  and  _166
REMARK   67  A    between atoms: _166  and  _167
REMARK   68  A    between atoms: _176  and  _178
REMARK   69  A    between atoms: _178  and  _179
REMARK   70  A    between atoms: _178  and  _181
REMARK   71  A    between atoms: _181  and  _182
REMARK   72  A    between atoms: _187  and  _188
REMARK   73  A    between atoms: _190  and  _192
REMARK   74  A    between atoms: _192  and  _193
REMARK   75  A    between atoms: _192  and  _195
REMARK   76  A    between atoms: _195  and  _196
REMARK   77  A    between atoms: _198  and  _200
REMARK   78  A    between atoms: _200  and  _201
REMARK   79  A    between atoms: _200  and  _203
REMARK   80  A    between atoms: _203  and  _204
REMARK   81  A    between atoms: _207  and  _209
REMARK   82  A    between atoms: _209  and  _210
REMARK   83  A    between atoms: _212  and  _214
REMARK   84  A    between atoms: _214  and  _215
REMARK   85  A    between atoms: _214  and  _217
REMARK   86  A    between atoms: _221  and  _222
REMARK   87  A    between atoms: _227  and  _229
REMARK   88  A    between atoms: _229  and  _230
REMARK   89  A    between atoms: _233  and  _235
REMARK   90  A    between atoms: _235  and  _236
REMARK   91  A    between atoms: _235  and  _238
REMARK   92  A    between atoms: _238  and  _239
REMARK   93  A    between atoms: _243  and  _244
REMARK   94  A    between atoms: _249  and  _251
REMARK   95  A    between atoms: _251  and  _252
REMARK   96  A    between atoms: _251  and  _254
REMARK   97  A    between atoms: _254  and  _255
REMARK   98  A    between atoms: _261  and  _263
REMARK   99  A    between atoms: _263  and  _264
REMARK  100  A    between atoms: _263  and  _266
REMARK  101  A    between atoms: _266  and  _267
REMARK  102  A    between atoms: _267  and  _268
REMARK  103  A    between atoms: _270  and  _272
REMARK  104  A    between atoms: _272  and  _273
REMARK  105  A    between atoms: _272  and  _275
REMARK  106  A    between atoms: _275  and  _276
REMARK  107  A    between atoms: _279  and  _281
REMARK  108  A    between atoms: _281  and  _282
REMARK  109  A    between atoms: _285  and  _287
REMARK  110  A    between atoms: _287  and  _288
REMARK  111  A    between atoms: _287  and  _290
REMARK  112  A    between atoms: _290  and  _291
REMARK  113  A    between atoms: _291  and  _292
REMARK  114  A    between atoms: _295  and  _297
REMARK  115  A    between atoms: _297  and  _298
REMARK  116  A    between atoms: _297  and  _300
REMARK  117  A    between atoms: _300  and  _301
REMARK  118  A    between atoms: _307  and  _309
REMARK  119  A    between atoms: _309  and  _310
REMARK  120  A    between atoms: _312  and  _314
REMARK  121  A    between atoms: _314  and  _315
REMARK  122  A    between atoms: _314  and  _317
REMARK  123  A    between atoms: _320  and  _322
REMARK  124  A    between atoms: _322  and  _323
REMARK  125  A    between atoms: _322  and  _325
REMARK  126  A    between atoms: _328  and  _330
REMARK  127  A    between atoms: _330  and  _331
REMARK  128  A    between atoms: _333  and  _335
REMARK  129  A    between atoms: _335  and  _336
REMARK  130  A    between atoms: _335  and  _338
REMARK  131  A    between atoms: _338  and  _339
REMARK  132  A    between atoms: _339  and  _340
REMARK  133  A    between atoms: _342  and  _344
REMARK  134  A    between atoms: _344  and  _345
REMARK  135  A    between atoms: _344  and  _347
REMARK  136  A    between atoms: _347  and  _348
REMARK  137  A    between atoms: _353  and  _354
REMARK  138  A    between atoms: _356  and  _358
REMARK  139  A    between atoms: _358  and  _359
REMARK  140  A    between atoms: _358  and  _361
REMARK  141  A    between atoms: _361  and  _362
REMARK  142  A    between atoms: _365  and  _367
REMARK  143  A    between atoms: _367  and  _368
REMARK  144  A    between atoms: _367  and  _370
REMARK  145  A    between atoms: _373  and  _375
REMARK  146  A    between atoms: _375  and  _376
REMARK  147  A    between atoms: _375  and  _378
REMARK  148  A    between atoms: _378  and  _379
REMARK  149  A    between atoms: _382  and  _384
REMARK  150  A    between atoms: _384  and  _385
REMARK  151  A    between atoms: _384  and  _387
REMARK  152  A    between atoms: _387  and  _388
REMARK  153  A    between atoms: _391  and  _393
REMARK  154  A    between atoms: _393  and  _394
REMARK  155  A    between atoms: _396  and  _398
REMARK  156  A    between atoms: _398  and  _399
REMARK  157  A    between atoms: _402  and  _404
REMARK  158  A    between atoms: _404  and  _405
REMARK  159  A    between atoms: _404  and  _407
REMARK  160  A    between atoms: _407  and  _408
REMARK  161  A    between atoms: _410  and  _412
REMARK  162  A    between atoms: _412  and  _413
REMARK  163  A    between atoms: _412  and  _415
REMARK  164  A    between atoms: _415  and  _416
REMARK  165  A    between atoms: _421  and  _422
REMARK  166  A    between atoms: _424  and  _426
REMARK  167  A    between atoms: _426  and  _427
REMARK  168  A    between atoms: _426  and  _429
REMARK  169  A    between atoms: _429  and  _430
REMARK  170  A    between atoms: _433  and  _435
REMARK  171  A    between atoms: _435  and  _436
REMARK  172  A    between atoms: _435  and  _438
REMARK  173  A    between atoms: _438  and  _439
REMARK  174  A    between atoms: _441  and  _443
REMARK  175  A    between atoms: _443  and  _444
REMARK  176  A    between atoms: _446  and  _448
REMARK  177  A    between atoms: _448  and  _449
REMARK  178  A    between atoms: _448  and  _451
REMARK  179  A    between atoms: _451  and  _452
REMARK  180  A    between atoms: _457  and  _459
REMARK  181  A    between atoms: _459  and  _460
REMARK  182  A    between atoms: _463  and  _465
REMARK  183  A    between atoms: _465  and  _466
REMARK  184  A    between atoms: _465  and  _468
REMARK  185  A    between atoms: _468  and  _469
REMARK  186  A    between atoms: _469  and  _470
REMARK  187  A    between atoms: _472  and  _474
REMARK  188  A    between atoms: _474  and  _475
REMARK  189  A    between atoms: _474  and  _477
REMARK  190  A    between atoms: _477  and  _478
REMARK  191  A    between atoms: _481  and  _483
REMARK  192  A    between atoms: _483  and  _484
REMARK  193  A    between atoms: _483  and  _486
REMARK  194  A    between atoms: _486  and  _487
REMARK  195  A    between atoms: _490  and  _492
REMARK  196  A    between atoms: _492  and  _493
REMARK  197  A    between atoms: _496  and  _498
REMARK  198  A    between atoms: _498  and  _499
REMARK                            x       y       z     vdW  Elec       q    Type
REMARK                         _______ _______ _______ _____ _____    ______ ____
ROOT
ATOM      1  O   HOH     1      34.673  62.763  38.075  0.00  0.00    +0.000 OA
ENDROOT
TORSDOF 0
REMARK  Name = ../refined-set-2016/4s1g/4s1g_pocket.pdb
REMARK  198 active torsions:
REMARK  status: ('A' for Active; 'I' for Inactive)
REMARK    1  A    between atoms: _1  and  _3
REMARK    2  A    between atoms: _3  and  _4
REMARK    3  A    between atoms: _3  and  _6
REMARK    4  A    between atoms: _6  and  _7
REMARK    5  A    between atoms: _12  and  _13
REMARK    6  A    between atoms: _15  and  _17
REMARK    7  A    between atoms: _17  and  _18
REMARK    8  A    between atoms: _17  and  _20
REMARK    9  A    between atoms: _20  and  _21
REMARK   10  A    between atoms: _24  and  _26
REMARK   11  A    between atoms: _26  and  _27
REMARK   12  A    between atoms: _26  and  _29
REMARK   13  A    between atoms: _29  and  _30
REMARK   14  A    between atoms: _30  and  _31
REMARK   15  A    between atoms: _36  and  _38
REMARK   16  A    between atoms: _38  and  _39
REMARK   17  A    between atoms: _38  and  _41
REMARK   18  A    between atoms: _41  and  _42
REMARK   19  A    between atoms: _47  and  _48
REMARK   20  A    between atoms: _50  and  _52
REMARK   21  A    between atoms: _52  and  _53
REMARK   22  A    between atoms: _52  and  _55
REMARK   23  A    between atoms: _55  and  _56
REMARK   24  A    between atoms: _61  and  _62
REMARK   25  A    between atoms: _64  and  _66
REMARK   26  A    between atoms: _66  and  _67
REMARK   27  A    between atoms: _66  and  _69
REMARK   28  A    between atoms: _72  and  _74
REMARK   29  A    between atoms: _74  and  _75
REMARK   30  A    between atoms: _74  and  _77
REMARK   31  A    between atoms: _77  and  _78
REMARK   32  A    between atoms: _84  and  _86
REMARK   33  A    between atoms: _86  and  _87
REMARK   34  A    between atoms: _86  and  _89
REMARK   35  A    between atoms: _89  and  _90
REMARK   36  A    between atoms: _93  and  _95
REMARK   37  A    between atoms: _95  and  _96
REMARK   38  A    between atoms: _95  and  _98
REMARK   39  A    between atoms: _98  and  _99
REMARK   40  A    between atoms: _102  and  _104
REMARK   41  A    between atoms: _104  and  _105
REMARK   42  A    between atoms: _107  and  _109
REMARK   43  A    between atoms: _109  and  _110
REMARK   44  A    between atoms: _109  and  _112
REMARK   45  A    between atoms: _112  and  _113
REMARK   46  A    between atoms: _115  and  _117
REMARK   47  A    between atoms: _117  and  _118
REMARK   48  A    between atoms: _117  and  _120
REMARK   49  A    between atoms: _120  and  _121
REMARK   50  A    between atoms: _123  and  _125
REMARK   51  A    between atoms: _125  and  _126
REMARK   52  A    between atoms: _125  and  _128
REMARK   53  A    between atoms: _128  and  _129
REMARK   54  A    between atoms: _134  and  _136
REMARK   55  A    between atoms: _136  and  _137
REMARK   56  A    between atoms: _136  and  _139
REMARK   57  A    between atoms: _139  and  _140
REMARK   58  A    between atoms: _150  and  _152
REMARK   59  A    between atoms: _152  and  _153
REMARK   60  A    between atoms: _152  and  _155
REMARK   61  A    between atoms: _155  and  _156
REMARK   62  A    between atoms: _159  and  _161
REMARK   63  A    between atoms: _161  and  _162
REMARK   64  A    between atoms: _161  and  _164
REMARK   65  A    between atoms: _164  and  _165
REMARK   66  A    between atoms: _165  and  _166
REMARK   67  A    between atoms: _166  and  _167
REMARK   68  A    between atoms: _176  and  _178
REMARK   69  A    between atoms: _178  and  _179
REMARK   70  A    between atoms: _178  and  _181
REMARK   71  A    between atoms: _181  and  _182
REMARK   72  A    between atoms: _187  and  _188
REMARK   73  A    between atoms: _190  and  _192
REMARK   74  A    between atoms: _192  and  _193
REMARK   75  A    between atoms: _192  and  _195
REMARK   76  A    between atoms: _195  and  _196
REMARK   77  A    between atoms: _198  and  _200
REMARK   78  A    between atoms: _200  and  _201
REMARK   79  A    between atoms: _200  and  _203
REMARK   80  A    between atoms: _203  and  _204
REMARK   81  A    between atoms: _207  and  _209
REMARK   82  A    between atoms: _209  and  _210
REMARK   83  A    between atoms: _212  and  _214
REMARK   84  A    between atoms: _214  and  _215
REMARK   85  A    between atoms: _214  and  _217
REMARK   86  A    between atoms: _221  and  _222
REMARK   87  A    between atoms: _227  and  _229
REMARK   88  A    between atoms: _229  and  _230
REMARK   89  A    between atoms: _233  and  _235
REMARK   90  A    between atoms: _235  and  _236
REMARK   91  A    between atoms: _235  and  _238
REMARK   92  A    between atoms: _238  and  _239
REMARK   93  A    between atoms: _243  and  _244
REMARK   94  A    between atoms: _249  and  _251
REMARK   95  A    between atoms: _251  and  _252
REMARK   96  A    between atoms: _251  and  _254
REMARK   97  A    between atoms: _254  and  _255
REMARK   98  A    between atoms: _261  and  _263
REMARK   99  A    between atoms: _263  and  _264
REMARK  100  A    between atoms: _263  and  _266
REMARK  101  A    between atoms: _266  and  _267
REMARK  102  A    between atoms: _267  and  _268
REMARK  103  A    between atoms: _270  and  _272
REMARK  104  A    between atoms: _272  and  _273
REMARK  105  A    between atoms: _272  and  _275
REMARK  106  A    between atoms: _275  and  _276
REMARK  107  A    between atoms: _279  and  _281
REMARK  108  A    between atoms: _281  and  _282
REMARK  109  A    between atoms: _285  and  _287
REMARK  110  A    between atoms: _287  and  _288
REMARK  111  A    between atoms: _287  and  _290
REMARK  112  A    between atoms: _290  and  _291
REMARK  113  A    between atoms: _291  and  _292
REMARK  114  A    between atoms: _295  and  _297
REMARK  115  A    between atoms: _297  and  _298
REMARK  116  A    between atoms: _297  and  _300
REMARK  117  A    between atoms: _300  and  _301
REMARK  118  A    between atoms: _307  and  _309
REMARK  119  A    between atoms: _309  and  _310
REMARK  120  A    between atoms: _312  and  _314
REMARK  121  A    between atoms: _314  and  _315
REMARK  122  A    between atoms: _314  and  _317
REMARK  123  A    between atoms: _320  and  _322
REMARK  124  A    between atoms: _322  and  _323
REMARK  125  A    between atoms: _322  and  _325
REMARK  126  A    between atoms: _328  and  _330
REMARK  127  A    between atoms: _330  and  _331
REMARK  128  A    between atoms: _333  and  _335
REMARK  129  A    between atoms: _335  and  _336
REMARK  130  A    between atoms: _335  and  _338
REMARK  131  A    between atoms: _338  and  _339
REMARK  132  A    between atoms: _339  and  _340
REMARK  133  A    between atoms: _342  and  _344
REMARK  134  A    between atoms: _344  and  _345
REMARK  135  A    between atoms: _344  and  _347
REMARK  136  A    between atoms: _347  and  _348
REMARK  137  A    between atoms: _353  and  _354
REMARK  138  A    between atoms: _356  and  _358
REMARK  139  A    between atoms: _358  and  _359
REMARK  140  A    between atoms: _358  and  _361
REMARK  141  A    between atoms: _361  and  _362
REMARK  142  A    between atoms: _365  and  _367
REMARK  143  A    between atoms: _367  and  _368
REMARK  144  A    between atoms: _367  and  _370
REMARK  145  A    between atoms: _373  and  _375
REMARK  146  A    between atoms: _375  and  _376
REMARK  147  A    between atoms: _375  and  _378
REMARK  148  A    between atoms: _378  and  _379
REMARK  149  A    between atoms: _382  and  _384
REMARK  150  A    between atoms: _384  and  _385
REMARK  151  A    between atoms: _384  and  _387
REMARK  152  A    between atoms: _387  and  _388
REMARK  153  A    between atoms: _391  and  _393
REMARK  154  A    between atoms: _393  and  _394
REMARK  155  A    between atoms: _396  and  _398
REMARK  156  A    between atoms: _398  and  _399
REMARK  157  A    between atoms: _402  and  _404
REMARK  158  A    between atoms: _404  and  _405
REMARK  159  A    between atoms: _404  and  _407
REMARK  160  A    between atoms: _407  and  _408
REMARK  161  A    between atoms: _410  and  _412
REMARK  162  A    between atoms: _412  and  _413
REMARK  163  A    between atoms: _412  and  _415
REMARK  164  A    between atoms: _415  and  _416
REMARK  165  A    between atoms: _421  and  _422
REMARK  166  A    between atoms: _424  and  _426
REMARK  167  A    between atoms: _426  and  _427
REMARK  168  A    between atoms: _426  and  _429
REMARK  169  A    between atoms: _429  and  _430
REMARK  170  A    between atoms: _433  and  _435
REMARK  171  A    between atoms: _435  and  _436
REMARK  172  A    between atoms: _435  and  _438
REMARK  173  A    between atoms: _438  and  _439
REMARK  174  A    between atoms: _441  and  _443
REMARK  175  A    between atoms: _443  and  _444
REMARK  176  A    between atoms: _446  and  _448
REMARK  177  A    between atoms: _448  and  _449
REMARK  178  A    between atoms: _448  and  _451
REMARK  179  A    between atoms: _451  and  _452
REMARK  180  A    between atoms: _457  and  _459
REMARK  181  A    between atoms: _459  and  _460
REMARK  182  A    between atoms: _463  and  _465
REMARK  183  A    between atoms: _465  and  _466
REMARK  184  A    between atoms: _465  and  _468
REMARK  185  A    between atoms: _468  and  _469
REMARK  186  A    between atoms: _469  and  _470
REMARK  187  A    between atoms: _472  and  _474
REMARK  188  A    between atoms: _474  and  _475
REMARK  189  A    between atoms: _474  and  _477
REMARK  190  A    between atoms: _477  and  _478
REMARK  191  A    between atoms: _481  and  _483
REMARK  192  A    between atoms: _483  and  _484
REMARK  193  A    between atoms: _483  and  _486
REMARK  194  A    between atoms: _486  and  _487
REMARK  195  A    between atoms: _490  and  _492
REMARK  196  A    between atoms: _492  and  _493
REMARK  197  A    between atoms: _496  and  _498
REMARK  198  A    between atoms: _498  and  _499
REMARK                            x       y       z     vdW  Elec       q    Type
REMARK                         _______ _______ _______ _____ _____    ______ ____
ROOT
ATOM      1  O   HOH     1      26.317  56.977  42.095  0.00  0.00    +0.000 OA
ENDROOT
TORSDOF 0
REMARK  Name = ../refined-set-2016/4s1g/4s1g_pocket.pdb
REMARK  198 active torsions:
REMARK  status: ('A' for Active; 'I' for Inactive)
REMARK    1  A    between atoms: _1  and  _3
REMARK    2  A    between atoms: _3  and  _4
REMARK    3  A    between atoms: _3  and  _6
REMARK    4  A    between atoms: _6  and  _7
REMARK    5  A    between atoms: _12  and  _13
REMARK    6  A    between atoms: _15  and  _17
REMARK    7  A    between atoms: _17  and  _18
REMARK    8  A    between atoms: _17  and  _20
REMARK    9  A    between atoms: _20  and  _21
REMARK   10  A    between atoms: _24  and  _26
REMARK   11  A    between atoms: _26  and  _27
REMARK   12  A    between atoms: _26  and  _29
REMARK   13  A    between atoms: _29  and  _30
REMARK   14  A    between atoms: _30  and  _31
REMARK   15  A    between atoms: _36  and  _38
REMARK   16  A    between atoms: _38  and  _39
REMARK   17  A    between atoms: _38  and  _41
REMARK   18  A    between atoms: _41  and  _42
REMARK   19  A    between atoms: _47  and  _48
REMARK   20  A    between atoms: _50  and  _52
REMARK   21  A    between atoms: _52  and  _53
REMARK   22  A    between atoms: _52  and  _55
REMARK   23  A    between atoms: _55  and  _56
REMARK   24  A    between atoms: _61  and  _62
REMARK   25  A    between atoms: _64  and  _66
REMARK   26  A    between atoms: _66  and  _67
REMARK   27  A    between atoms: _66  and  _69
REMARK   28  A    between atoms: _72  and  _74
REMARK   29  A    between atoms: _74  and  _75
REMARK   30  A    between atoms: _74  and  _77
REMARK   31  A    between atoms: _77  and  _78
REMARK   32  A    between atoms: _84  and  _86
REMARK   33  A    between atoms: _86  and  _87
REMARK   34  A    between atoms: _86  and  _89
REMARK   35  A    between atoms: _89  and  _90
REMARK   36  A    between atoms: _93  and  _95
REMARK   37  A    between atoms: _95  and  _96
REMARK   38  A    between atoms: _95  and  _98
REMARK   39  A    between atoms: _98  and  _99
REMARK   40  A    between atoms: _102  and  _104
REMARK   41  A    between atoms: _104  and  _105
REMARK   42  A    between atoms: _107  and  _109
REMARK   43  A    between atoms: _109  and  _110
REMARK   44  A    between atoms: _109  and  _112
REMARK   45  A    between atoms: _112  and  _113
REMARK   46  A    between atoms: _115  and  _117
REMARK   47  A    between atoms: _117  and  _118
REMARK   48  A    between atoms: _117  and  _120
REMARK   49  A    between atoms: _120  and  _121
REMARK   50  A    between atoms: _123  and  _125
REMARK   51  A    between atoms: _125  and  _126
REMARK   52  A    between atoms: _125  and  _128
REMARK   53  A    between atoms: _128  and  _129
REMARK   54  A    between atoms: _134  and  _136
REMARK   55  A    between atoms: _136  and  _137
REMARK   56  A    between atoms: _136  and  _139
REMARK   57  A    between atoms: _139  and  _140
REMARK   58  A    between atoms: _150  and  _152
REMARK   59  A    between atoms: _152  and  _153
REMARK   60  A    between atoms: _152  and  _155
REMARK   61  A    between atoms: _155  and  _156
REMARK   62  A    between atoms: _159  and  _161
REMARK   63  A    between atoms: _161  and  _162
REMARK   64  A    between atoms: _161  and  _164
REMARK   65  A    between atoms: _164  and  _165
REMARK   66  A    between atoms: _165  and  _166
REMARK   67  A    between atoms: _166  and  _167
REMARK   68  A    between atoms: _176  and  _178
REMARK   69  A    between atoms: _178  and  _179
REMARK   70  A    between atoms: _178  and  _181
REMARK   71  A    between atoms: _181  and  _182
REMARK   72  A    between atoms: _187  and  _188
REMARK   73  A    between atoms: _190  and  _192
REMARK   74  A    between atoms: _192  and  _193
REMARK   75  A    between atoms: _192  and  _195
REMARK   76  A    between atoms: _195  and  _196
REMARK   77  A    between atoms: _198  and  _200
REMARK   78  A    between atoms: _200  and  _201
REMARK   79  A    between atoms: _200  and  _203
REMARK   80  A    between atoms: _203  and  _204
REMARK   81  A    between atoms: _207  and  _209
REMARK   82  A    between atoms: _209  and  _210
REMARK   83  A    between atoms: _212  and  _214
REMARK   84  A    between atoms: _214  and  _215
REMARK   85  A    between atoms: _214  and  _217
REMARK   86  A    between atoms: _221  and  _222
REMARK   87  A    between atoms: _227  and  _229
REMARK   88  A    between atoms: _229  and  _230
REMARK   89  A    between atoms: _233  and  _235
REMARK   90  A    between atoms: _235  and  _236
REMARK   91  A    between atoms: _235  and  _238
REMARK   92  A    between atoms: _238  and  _239
REMARK   93  A    between atoms: _243  and  _244
REMARK   94  A    between atoms: _249  and  _251
REMARK   95  A    between atoms: _251  and  _252
REMARK   96  A    between atoms: _251  and  _254
REMARK   97  A    between atoms: _254  and  _255
REMARK   98  A    between atoms: _261  and  _263
REMARK   99  A    between atoms: _263  and  _264
REMARK  100  A    between atoms: _263  and  _266
REMARK  101  A    between atoms: _266  and  _267
REMARK  102  A    between atoms: _267  and  _268
REMARK  103  A    between atoms: _270  and  _272
REMARK  104  A    between atoms: _272  and  _273
REMARK  105  A    between atoms: _272  and  _275
REMARK  106  A    between atoms: _275  and  _276
REMARK  107  A    between atoms: _279  and  _281
REMARK  108  A    between atoms: _281  and  _282
REMARK  109  A    between atoms: _285  and  _287
REMARK  110  A    between atoms: _287  and  _288
REMARK  111  A    between atoms: _287  and  _290
REMARK  112  A    between atoms: _290  and  _291
REMARK  113  A    between atoms: _291  and  _292
REMARK  114  A    between atoms: _295  and  _297
REMARK  115  A    between atoms: _297  and  _298
REMARK  116  A    between atoms: _297  and  _300
REMARK  117  A    between atoms: _300  and  _301
REMARK  118  A    between atoms: _307  and  _309
REMARK  119  A    between atoms: _309  and  _310
REMARK  120  A    between atoms: _312  and  _314
REMARK  121  A    between atoms: _314  and  _315
REMARK  122  A    between atoms: _314  and  _317
REMARK  123  A    between atoms: _320  and  _322
REMARK  124  A    between atoms: _322  and  _323
REMARK  125  A    between atoms: _322  and  _325
REMARK  126  A    between atoms: _328  and  _330
REMARK  127  A    between atoms: _330  and  _331
REMARK  128  A    between atoms: _333  and  _335
REMARK  129  A    between atoms: _335  and  _336
REMARK  130  A    between atoms: _335  and  _338
REMARK  131  A    between atoms: _338  and  _339
REMARK  132  A    between atoms: _339  and  _340
REMARK  133  A    between atoms: _342  and  _344
REMARK  134  A    between atoms: _344  and  _345
REMARK  135  A    between atoms: _344  and  _347
REMARK  136  A    between atoms: _347  and  _348
REMARK  137  A    between atoms: _353  and  _354
REMARK  138  A    between atoms: _356  and  _358
REMARK  139  A    between atoms: _358  and  _359
REMARK  140  A    between atoms: _358  and  _361
REMARK  141  A    between atoms: _361  and  _362
REMARK  142  A    between atoms: _365  and  _367
REMARK  143  A    between atoms: _367  and  _368
REMARK  144  A    between atoms: _367  and  _370
REMARK  145  A    between atoms: _373  and  _375
REMARK  146  A    between atoms: _375  and  _376
REMARK  147  A    between atoms: _375  and  _378
REMARK  148  A    between atoms: _378  and  _379
REMARK  149  A    between atoms: _382  and  _384
REMARK  150  A    between atoms: _384  and  _385
REMARK  151  A    between atoms: _384  and  _387
REMARK  152  A    between atoms: _387  and  _388
REMARK  153  A    between atoms: _391  and  _393
REMARK  154  A    between atoms: _393  and  _394
REMARK  155  A    between atoms: _396  and  _398
REMARK  156  A    between atoms: _398  and  _399
REMARK  157  A    between atoms: _402  and  _404
REMARK  158  A    between atoms: _404  and  _405
REMARK  159  A    between atoms: _404  and  _407
REMARK  160  A    between atoms: _407  and  _408
REMARK  161  A    between atoms: _410  and  _412
REMARK  162  A    between atoms: _412  and  _413
REMARK  163  A    between atoms: _412  and  _415
REMARK  164  A    between atoms: _415  and  _416
REMARK  165  A    between atoms: _421  and  _422
REMARK  166  A    between atoms: _424  and  _426
REMARK  167  A    between atoms: _426  and  _427
REMARK  168  A    between atoms: _426  and  _429
REMARK  169  A    between atoms: _429  and  _430
REMARK  170  A    between atoms: _433  and  _435
REMARK  171  A    between atoms: _435  and  _436
REMARK  172  A    between atoms: _435  and  _438
REMARK  173  A    between atoms: _438  and  _439
REMARK  174  A    between atoms: _441  and  _443
REMARK  175  A    between atoms: _443  and  _444
REMARK  176  A    between atoms: _446  and  _448
REMARK  177  A    between atoms: _448  and  _449
REMARK  178  A    between atoms: _448  and  _451
REMARK  179  A    between atoms: _451  and  _452
REMARK  180  A    between atoms: _457  and  _459
REMARK  181  A    between atoms: _459  and  _460
REMARK  182  A    between atoms: _463  and  _465
REMARK  183  A    between atoms: _465  and  _466
REMARK  184  A    between atoms: _465  and  _468
REMARK  185  A    between atoms: _468  and  _469
REMARK  186  A    between atoms: _469  and  _470
REMARK  187  A    between atoms: _472  and  _474
REMARK  188  A    between atoms: _474  and  _475
REMARK  189  A    between atoms: _474  and  _477
REMARK  190  A    between atoms: _477  and  _478
REMARK  191  A    between atoms: _481  and  _483
REMARK  192  A    between atoms: _483  and  _484
REMARK  193  A    between atoms: _483  and  _486
REMARK  194  A    between atoms: _486  and  _487
REMARK  195  A    between atoms: _490  and  _492
REMARK  196  A    between atoms: _492  and  _493
REMARK  197  A    between atoms: _496  and  _498
REMARK  198  A    between atoms: _498  and  _499
REMARK                            x       y       z     vdW  Elec       q    Type
REMARK                         _______ _______ _______ _____ _____    ______ ____
ROOT
ATOM      1  O   HOH     1      37.864  65.022  40.366  0.00  0.00    +0.000 OA
ENDROOT
TORSDOF 0
REMARK  Name = ../refined-set-2016/4s1g/4s1g_pocket.pdb
REMARK  198 active torsions:
REMARK  status: ('A' for Active; 'I' for Inactive)
REMARK    1  A    between atoms: _1  and  _3
REMARK    2  A    between atoms: _3  and  _4
REMARK    3  A    between atoms: _3  and  _6
REMARK    4  A    between atoms: _6  and  _7
REMARK    5  A    between atoms: _12  and  _13
REMARK    6  A    between atoms: _15  and  _17
REMARK    7  A    between atoms: _17  and  _18
REMARK    8  A    between atoms: _17  and  _20
REMARK    9  A    between atoms: _20  and  _21
REMARK   10  A    between atoms: _24  and  _26
REMARK   11  A    between atoms: _26  and  _27
REMARK   12  A    between atoms: _26  and  _29
REMARK   13  A    between atoms: _29  and  _30
REMARK   14  A    between atoms: _30  and  _31
REMARK   15  A    between atoms: _36  and  _38
REMARK   16  A    between atoms: _38  and  _39
REMARK   17  A    between atoms: _38  and  _41
REMARK   18  A    between atoms: _41  and  _42
REMARK   19  A    between atoms: _47  and  _48
REMARK   20  A    between atoms: _50  and  _52
REMARK   21  A    between atoms: _52  and  _53
REMARK   22  A    between atoms: _52  and  _55
REMARK   23  A    between atoms: _55  and  _56
REMARK   24  A    between atoms: _61  and  _62
REMARK   25  A    between atoms: _64  and  _66
REMARK   26  A    between atoms: _66  and  _67
REMARK   27  A    between atoms: _66  and  _69
REMARK   28  A    between atoms: _72  and  _74
REMARK   29  A    between atoms: _74  and  _75
REMARK   30  A    between atoms: _74  and  _77
REMARK   31  A    between atoms: _77  and  _78
REMARK   32  A    between atoms: _84  and  _86
REMARK   33  A    between atoms: _86  and  _87
REMARK   34  A    between atoms: _86  and  _89
REMARK   35  A    between atoms: _89  and  _90
REMARK   36  A    between atoms: _93  and  _95
REMARK   37  A    between atoms: _95  and  _96
REMARK   38  A    between atoms: _95  and  _98
REMARK   39  A    between atoms: _98  and  _99
REMARK   40  A    between atoms: _102  and  _104
REMARK   41  A    between atoms: _104  and  _105
REMARK   42  A    between atoms: _107  and  _109
REMARK   43  A    between atoms: _109  and  _110
REMARK   44  A    between atoms: _109  and  _112
REMARK   45  A    between atoms: _112  and  _113
REMARK   46  A    between atoms: _115  and  _117
REMARK   47  A    between atoms: _117  and  _118
REMARK   48  A    between atoms: _117  and  _120
REMARK   49  A    between atoms: _120  and  _121
REMARK   50  A    between atoms: _123  and  _125
REMARK   51  A    between atoms: _125  and  _126
REMARK   52  A    between atoms: _125  and  _128
REMARK   53  A    between atoms: _128  and  _129
REMARK   54  A    between atoms: _134  and  _136
REMARK   55  A    between atoms: _136  and  _137
REMARK   56  A    between atoms: _136  and  _139
REMARK   57  A    between atoms: _139  and  _140
REMARK   58  A    between atoms: _150  and  _152
REMARK   59  A    between atoms: _152  and  _153
REMARK   60  A    between atoms: _152  and  _155
REMARK   61  A    between atoms: _155  and  _156
REMARK   62  A    between atoms: _159  and  _161
REMARK   63  A    between atoms: _161  and  _162
REMARK   64  A    between atoms: _161  and  _164
REMARK   65  A    between atoms: _164  and  _165
REMARK   66  A    between atoms: _165  and  _166
REMARK   67  A    between atoms: _166  and  _167
REMARK   68  A    between atoms: _176  and  _178
REMARK   69  A    between atoms: _178  and  _179
REMARK   70  A    between atoms: _178  and  _181
REMARK   71  A    between atoms: _181  and  _182
REMARK   72  A    between atoms: _187  and  _188
REMARK   73  A    between atoms: _190  and  _192
REMARK   74  A    between atoms: _192  and  _193
REMARK   75  A    between atoms: _192  and  _195
REMARK   76  A    between atoms: _195  and  _196
REMARK   77  A    between atoms: _198  and  _200
REMARK   78  A    between atoms: _200  and  _201
REMARK   79  A    between atoms: _200  and  _203
REMARK   80  A    between atoms: _203  and  _204
REMARK   81  A    between atoms: _207  and  _209
REMARK   82  A    between atoms: _209  and  _210
REMARK   83  A    between atoms: _212  and  _214
REMARK   84  A    between atoms: _214  and  _215
REMARK   85  A    between atoms: _214  and  _217
REMARK   86  A    between atoms: _221  and  _222
REMARK   87  A    between atoms: _227  and  _229
REMARK   88  A    between atoms: _229  and  _230
REMARK   89  A    between atoms: _233  and  _235
REMARK   90  A    between atoms: _235  and  _236
REMARK   91  A    between atoms: _235  and  _238
REMARK   92  A    between atoms: _238  and  _239
REMARK   93  A    between atoms: _243  and  _244
REMARK   94  A    between atoms: _249  and  _251
REMARK   95  A    between atoms: _251  and  _252
REMARK   96  A    between atoms: _251  and  _254
REMARK   97  A    between atoms: _254  and  _255
REMARK   98  A    between atoms: _261  and  _263
REMARK   99  A    between atoms: _263  and  _264
REMARK  100  A    between atoms: _263  and  _266
REMARK  101  A    between atoms: _266  and  _267
REMARK  102  A    between atoms: _267  and  _268
REMARK  103  A    between atoms: _270  and  _272
REMARK  104  A    between atoms: _272  and  _273
REMARK  105  A    between atoms: _272  and  _275
REMARK  106  A    between atoms: _275  and  _276
REMARK  107  A    between atoms: _279  and  _281
REMARK  108  A    between atoms: _281  and  _282
REMARK  109  A    between atoms: _285  and  _287
REMARK  110  A    between atoms: _287  and  _288
REMARK  111  A    between atoms: _287  and  _290
REMARK  112  A    between atoms: _290  and  _291
REMARK  113  A    between atoms: _291  and  _292
REMARK  114  A    between atoms: _295  and  _297
REMARK  115  A    between atoms: _297  and  _298
REMARK  116  A    between atoms: _297  and  _300
REMARK  117  A    between atoms: _300  and  _301
REMARK  118  A    between atoms: _307  and  _309
REMARK  119  A    between atoms: _309  and  _310
REMARK  120  A    between atoms: _312  and  _314
REMARK  121  A    between atoms: _314  and  _315
REMARK  122  A    between atoms: _314  and  _317
REMARK  123  A    between atoms: _320  and  _322
REMARK  124  A    between atoms: _322  and  _323
REMARK  125  A    between atoms: _322  and  _325
REMARK  126  A    between atoms: _328  and  _330
REMARK  127  A    between atoms: _330  and  _331
REMARK  128  A    between atoms: _333  and  _335
REMARK  129  A    between atoms: _335  and  _336
REMARK  130  A    between atoms: _335  and  _338
REMARK  131  A    between atoms: _338  and  _339
REMARK  132  A    between atoms: _339  and  _340
REMARK  133  A    between atoms: _342  and  _344
REMARK  134  A    between atoms: _344  and  _345
REMARK  135  A    between atoms: _344  and  _347
REMARK  136  A    between atoms: _347  and  _348
REMARK  137  A    between atoms: _353  and  _354
REMARK  138  A    between atoms: _356  and  _358
REMARK  139  A    between atoms: _358  and  _359
REMARK  140  A    between atoms: _358  and  _361
REMARK  141  A    between atoms: _361  and  _362
REMARK  142  A    between atoms: _365  and  _367
REMARK  143  A    between atoms: _367  and  _368
REMARK  144  A    between atoms: _367  and  _370
REMARK  145  A    between atoms: _373  and  _375
REMARK  146  A    between atoms: _375  and  _376
REMARK  147  A    between atoms: _375  and  _378
REMARK  148  A    between atoms: _378  and  _379
REMARK  149  A    between atoms: _382  and  _384
REMARK  150  A    between atoms: _384  and  _385
REMARK  151  A    between atoms: _384  and  _387
REMARK  152  A    between atoms: _387  and  _388
REMARK  153  A    between atoms: _391  and  _393
REMARK  154  A    between atoms: _393  and  _394
REMARK  155  A    between atoms: _396  and  _398
REMARK  156  A    between atoms: _398  and  _399
REMARK  157  A    between atoms: _402  and  _404
REMARK  158  A    between atoms: _404  and  _405
REMARK  159  A    between atoms: _404  and  _407
REMARK  160  A    between atoms: _407  and  _408
REMARK  161  A    between atoms: _410  and  _412
REMARK  162  A    between atoms: _412  and  _413
REMARK  163  A    between atoms: _412  and  _415
REMARK  164  A    between atoms: _415  and  _416
REMARK  165  A    between atoms: _421  and  _422
REMARK  166  A    between atoms: _424  and  _426
REMARK  167  A    between atoms: _426  and  _427
REMARK  168  A    between atoms: _426  and  _429
REMARK  169  A    between atoms: _429  and  _430
REMARK  170  A    between atoms: _433  and  _435
REMARK  171  A    between atoms: _435  and  _436
REMARK  172  A    between atoms: _435  and  _438
REMARK  173  A    between atoms: _438  and  _439
REMARK  174  A    between atoms: _441  and  _443
REMARK  175  A    between atoms: _443  and  _444
REMARK  176  A    between atoms: _446  and  _448
REMARK  177  A    between atoms: _448  and  _449
REMARK  178  A    between atoms: _448  and  _451
REMARK  179  A    between atoms: _451  and  _452
REMARK  180  A    between atoms: _457  and  _459
REMARK  181  A    between atoms: _459  and  _460
REMARK  182  A    between atoms: _463  and  _465
REMARK  183  A    between atoms: _465  and  _466
REMARK  184  A    between atoms: _465  and  _468
REMARK  185  A    between atoms: _468  and  _469
REMARK  186  A    between atoms: _469  and  _470
REMARK  187  A    between atoms: _472  and  _474
REMARK  188  A    between atoms: _474  and  _475
REMARK  189  A    between atoms: _474  and  _477
REMARK  190  A    between atoms: _477  and  _478
REMARK  191  A    between atoms: _481  and  _483
REMARK  192  A    between atoms: _483  and  _484
REMARK  193  A    between atoms: _483  and  _486
REMARK  194  A    between atoms: _486  and  _487
REMARK  195  A    between atoms: _490  and  _492
REMARK  196  A    between atoms: _492  and  _493
REMARK  197  A    between atoms: _496  and  _498
REMARK  198  A    between atoms: _498  and  _499
REMARK                            x       y       z     vdW  Elec       q    Type
REMARK                         _______ _______ _______ _____ _____    ______ ____
ROOT
ATOM      1  O   HOH     1      40.776  58.869  51.094  0.00  0.00    +0.000 OA
ENDROOT
TORSDOF 0
REMARK  Name = ../refined-set-2016/4s1g/4s1g_pocket.pdb
REMARK  198 active torsions:
REMARK  status: ('A' for Active; 'I' for Inactive)
REMARK    1  A    between atoms: _1  and  _3
REMARK    2  A    between atoms: _3  and  _4
REMARK    3  A    between atoms: _3  and  _6
REMARK    4  A    between atoms: _6  and  _7
REMARK    5  A    between atoms: _12  and  _13
REMARK    6  A    between atoms: _15  and  _17
REMARK    7  A    between atoms: _17  and  _18
REMARK    8  A    between atoms: _17  and  _20
REMARK    9  A    between atoms: _20  and  _21
REMARK   10  A    between atoms: _24  and  _26
REMARK   11  A    between atoms: _26  and  _27
REMARK   12  A    between atoms: _26  and  _29
REMARK   13  A    between atoms: _29  and  _30
REMARK   14  A    between atoms: _30  and  _31
REMARK   15  A    between atoms: _36  and  _38
REMARK   16  A    between atoms: _38  and  _39
REMARK   17  A    between atoms: _38  and  _41
REMARK   18  A    between atoms: _41  and  _42
REMARK   19  A    between atoms: _47  and  _48
REMARK   20  A    between atoms: _50  and  _52
REMARK   21  A    between atoms: _52  and  _53
REMARK   22  A    between atoms: _52  and  _55
REMARK   23  A    between atoms: _55  and  _56
REMARK   24  A    between atoms: _61  and  _62
REMARK   25  A    between atoms: _64  and  _66
REMARK   26  A    between atoms: _66  and  _67
REMARK   27  A    between atoms: _66  and  _69
REMARK   28  A    between atoms: _72  and  _74
REMARK   29  A    between atoms: _74  and  _75
REMARK   30  A    between atoms: _74  and  _77
REMARK   31  A    between atoms: _77  and  _78
REMARK   32  A    between atoms: _84  and  _86
REMARK   33  A    between atoms: _86  and  _87
REMARK   34  A    between atoms: _86  and  _89
REMARK   35  A    between atoms: _89  and  _90
REMARK   36  A    between atoms: _93  and  _95
REMARK   37  A    between atoms: _95  and  _96
REMARK   38  A    between atoms: _95  and  _98
REMARK   39  A    between atoms: _98  and  _99
REMARK   40  A    between atoms: _102  and  _104
REMARK   41  A    between atoms: _104  and  _105
REMARK   42  A    between atoms: _107  and  _109
REMARK   43  A    between atoms: _109  and  _110
REMARK   44  A    between atoms: _109  and  _112
REMARK   45  A    between atoms: _112  and  _113
REMARK   46  A    between atoms: _115  and  _117
REMARK   47  A    between atoms: _117  and  _118
REMARK   48  A    between atoms: _117  and  _120
REMARK   49  A    between atoms: _120  and  _121
REMARK   50  A    between atoms: _123  and  _125
REMARK   51  A    between atoms: _125  and  _126
REMARK   52  A    between atoms: _125  and  _128
REMARK   53  A    between atoms: _128  and  _129
REMARK   54  A    between atoms: _134  and  _136
REMARK   55  A    between atoms: _136  and  _137
REMARK   56  A    between atoms: _136  and  _139
REMARK   57  A    between atoms: _139  and  _140
REMARK   58  A    between atoms: _150  and  _152
REMARK   59  A    between atoms: _152  and  _153
REMARK   60  A    between atoms: _152  and  _155
REMARK   61  A    between atoms: _155  and  _156
REMARK   62  A    between atoms: _159  and  _161
REMARK   63  A    between atoms: _161  and  _162
REMARK   64  A    between atoms: _161  and  _164
REMARK   65  A    between atoms: _164  and  _165
REMARK   66  A    between atoms: _165  and  _166
REMARK   67  A    between atoms: _166  and  _167
REMARK   68  A    between atoms: _176  and  _178
REMARK   69  A    between atoms: _178  and  _179
REMARK   70  A    between atoms: _178  and  _181
REMARK   71  A    between atoms: _181  and  _182
REMARK   72  A    between atoms: _187  and  _188
REMARK   73  A    between atoms: _190  and  _192
REMARK   74  A    between atoms: _192  and  _193
REMARK   75  A    between atoms: _192  and  _195
REMARK   76  A    between atoms: _195  and  _196
REMARK   77  A    between atoms: _198  and  _200
REMARK   78  A    between atoms: _200  and  _201
REMARK   79  A    between atoms: _200  and  _203
REMARK   80  A    between atoms: _203  and  _204
REMARK   81  A    between atoms: _207  and  _209
REMARK   82  A    between atoms: _209  and  _210
REMARK   83  A    between atoms: _212  and  _214
REMARK   84  A    between atoms: _214  and  _215
REMARK   85  A    between atoms: _214  and  _217
REMARK   86  A    between atoms: _221  and  _222
REMARK   87  A    between atoms: _227  and  _229
REMARK   88  A    between atoms: _229  and  _230
REMARK   89  A    between atoms: _233  and  _235
REMARK   90  A    between atoms: _235  and  _236
REMARK   91  A    between atoms: _235  and  _238
REMARK   92  A    between atoms: _238  and  _239
REMARK   93  A    between atoms: _243  and  _244
REMARK   94  A    between atoms: _249  and  _251
REMARK   95  A    between atoms: _251  and  _252
REMARK   96  A    between atoms: _251  and  _254
REMARK   97  A    between atoms: _254  and  _255
REMARK   98  A    between atoms: _261  and  _263
REMARK   99  A    between atoms: _263  and  _264
REMARK  100  A    between atoms: _263  and  _266
REMARK  101  A    between atoms: _266  and  _267
REMARK  102  A    between atoms: _267  and  _268
REMARK  103  A    between atoms: _270  and  _272
REMARK  104  A    between atoms: _272  and  _273
REMARK  105  A    between atoms: _272  and  _275
REMARK  106  A    between atoms: _275  and  _276
REMARK  107  A    between atoms: _279  and  _281
REMARK  108  A    between atoms: _281  and  _282
REMARK  109  A    between atoms: _285  and  _287
REMARK  110  A    between atoms: _287  and  _288
REMARK  111  A    between atoms: _287  and  _290
REMARK  112  A    between atoms: _290  and  _291
REMARK  113  A    between atoms: _291  and  _292
REMARK  114  A    between atoms: _295  and  _297
REMARK  115  A    between atoms: _297  and  _298
REMARK  116  A    between atoms: _297  and  _300
REMARK  117  A    between atoms: _300  and  _301
REMARK  118  A    between atoms: _307  and  _309
REMARK  119  A    between atoms: _309  and  _310
REMARK  120  A    between atoms: _312  and  _314
REMARK  121  A    between atoms: _314  and  _315
REMARK  122  A    between atoms: _314  and  _317
REMARK  123  A    between atoms: _320  and  _322
REMARK  124  A    between atoms: _322  and  _323
REMARK  125  A    between atoms: _322  and  _325
REMARK  126  A    between atoms: _328  and  _330
REMARK  127  A    between atoms: _330  and  _331
REMARK  128  A    between atoms: _333  and  _335
REMARK  129  A    between atoms: _335  and  _336
REMARK  130  A    between atoms: _335  and  _338
REMARK  131  A    between atoms: _338  and  _339
REMARK  132  A    between atoms: _339  and  _340
REMARK  133  A    between atoms: _342  and  _344
REMARK  134  A    between atoms: _344  and  _345
REMARK  135  A    between atoms: _344  and  _347
REMARK  136  A    between atoms: _347  and  _348
REMARK  137  A    between atoms: _353  and  _354
REMARK  138  A    between atoms: _356  and  _358
REMARK  139  A    between atoms: _358  and  _359
REMARK  140  A    between atoms: _358  and  _361
REMARK  141  A    between atoms: _361  and  _362
REMARK  142  A    between atoms: _365  and  _367
REMARK  143  A    between atoms: _367  and  _368
REMARK  144  A    between atoms: _367  and  _370
REMARK  145  A    between atoms: _373  and  _375
REMARK  146  A    between atoms: _375  and  _376
REMARK  147  A    between atoms: _375  and  _378
REMARK  148  A    between atoms: _378  and  _379
REMARK  149  A    between atoms: _382  and  _384
REMARK  150  A    between atoms: _384  and  _385
REMARK  151  A    between atoms: _384  and  _387
REMARK  152  A    between atoms: _387  and  _388
REMARK  153  A    between atoms: _391  and  _393
REMARK  154  A    between atoms: _393  and  _394
REMARK  155  A    between atoms: _396  and  _398
REMARK  156  A    between atoms: _398  and  _399
REMARK  157  A    between atoms: _402  and  _404
REMARK  158  A    between atoms: _404  and  _405
REMARK  159  A    between atoms: _404  and  _407
REMARK  160  A    between atoms: _407  and  _408
REMARK  161  A    between atoms: _410  and  _412
REMARK  162  A    between atoms: _412  and  _413
REMARK  163  A    between atoms: _412  and  _415
REMARK  164  A    between atoms: _415  and  _416
REMARK  165  A    between atoms: _421  and  _422
REMARK  166  A    between atoms: _424  and  _426
REMARK  167  A    between atoms: _426  and  _427
REMARK  168  A    between atoms: _426  and  _429
REMARK  169  A    between atoms: _429  and  _430
REMARK  170  A    between atoms: _433  and  _435
REMARK  171  A    between atoms: _435  and  _436
REMARK  172  A    between atoms: _435  and  _438
REMARK  173  A    between atoms: _438  and  _439
REMARK  174  A    between atoms: _441  and  _443
REMARK  175  A    between atoms: _443  and  _444
REMARK  176  A    between atoms: _446  and  _448
REMARK  177  A    between atoms: _448  and  _449
REMARK  178  A    between atoms: _448  and  _451
REMARK  179  A    between atoms: _451  and  _452
REMARK  180  A    between atoms: _457  and  _459
REMARK  181  A    between atoms: _459  and  _460
REMARK  182  A    between atoms: _463  and  _465
REMARK  183  A    between atoms: _465  and  _466
REMARK  184  A    between atoms: _465  and  _468
REMARK  185  A    between atoms: _468  and  _469
REMARK  186  A    between atoms: _469  and  _470
REMARK  187  A    between atoms: _472  and  _474
REMARK  188  A    between atoms: _474  and  _475
REMARK  189  A    between atoms: _474  and  _477
REMARK  190  A    between atoms: _477  and  _478
REMARK  191  A    between atoms: _481  and  _483
REMARK  192  A    between atoms: _483  and  _484
REMARK  193  A    between atoms: _483  and  _486
REMARK  194  A    between atoms: _486  and  _487
REMARK  195  A    between atoms: _490  and  _492
REMARK  196  A    between atoms: _492  and  _493
REMARK  197  A    between atoms: _496  and  _498
REMARK  198  A    between atoms: _498  and  _499
REMARK                            x       y       z     vdW  Elec       q    Type
REMARK                         _______ _______ _______ _____ _____    ______ ____
ROOT
ATOM      1  O   HOH     1      29.226  63.243  51.880  0.00  0.00    +0.000 OA
ENDROOT
TORSDOF 0
REMARK  Name = ../refined-set-2016/4s1g/4s1g_pocket.pdb
REMARK  198 active torsions:
REMARK  status: ('A' for Active; 'I' for Inactive)
REMARK    1  A    between atoms: _1  and  _3
REMARK    2  A    between atoms: _3  and  _4
REMARK    3  A    between atoms: _3  and  _6
REMARK    4  A    between atoms: _6  and  _7
REMARK    5  A    between atoms: _12  and  _13
REMARK    6  A    between atoms: _15  and  _17
REMARK    7  A    between atoms: _17  and  _18
REMARK    8  A    between atoms: _17  and  _20
REMARK    9  A    between atoms: _20  and  _21
REMARK   10  A    between atoms: _24  and  _26
REMARK   11  A    between atoms: _26  and  _27
REMARK   12  A    between atoms: _26  and  _29
REMARK   13  A    between atoms: _29  and  _30
REMARK   14  A    between atoms: _30  and  _31
REMARK   15  A    between atoms: _36  and  _38
REMARK   16  A    between atoms: _38  and  _39
REMARK   17  A    between atoms: _38  and  _41
REMARK   18  A    between atoms: _41  and  _42
REMARK   19  A    between atoms: _47  and  _48
REMARK   20  A    between atoms: _50  and  _52
REMARK   21  A    between atoms: _52  and  _53
REMARK   22  A    between atoms: _52  and  _55
REMARK   23  A    between atoms: _55  and  _56
REMARK   24  A    between atoms: _61  and  _62
REMARK   25  A    between atoms: _64  and  _66
REMARK   26  A    between atoms: _66  and  _67
REMARK   27  A    between atoms: _66  and  _69
REMARK   28  A    between atoms: _72  and  _74
REMARK   29  A    between atoms: _74  and  _75
REMARK   30  A    between atoms: _74  and  _77
REMARK   31  A    between atoms: _77  and  _78
REMARK   32  A    between atoms: _84  and  _86
REMARK   33  A    between atoms: _86  and  _87
REMARK   34  A    between atoms: _86  and  _89
REMARK   35  A    between atoms: _89  and  _90
REMARK   36  A    between atoms: _93  and  _95
REMARK   37  A    between atoms: _95  and  _96
REMARK   38  A    between atoms: _95  and  _98
REMARK   39  A    between atoms: _98  and  _99
REMARK   40  A    between atoms: _102  and  _104
REMARK   41  A    between atoms: _104  and  _105
REMARK   42  A    between atoms: _107  and  _109
REMARK   43  A    between atoms: _109  and  _110
REMARK   44  A    between atoms: _109  and  _112
REMARK   45  A    between atoms: _112  and  _113
REMARK   46  A    between atoms: _115  and  _117
REMARK   47  A    between atoms: _117  and  _118
REMARK   48  A    between atoms: _117  and  _120
REMARK   49  A    between atoms: _120  and  _121
REMARK   50  A    between atoms: _123  and  _125
REMARK   51  A    between atoms: _125  and  _126
REMARK   52  A    between atoms: _125  and  _128
REMARK   53  A    between atoms: _128  and  _129
REMARK   54  A    between atoms: _134  and  _136
REMARK   55  A    between atoms: _136  and  _137
REMARK   56  A    between atoms: _136  and  _139
REMARK   57  A    between atoms: _139  and  _140
REMARK   58  A    between atoms: _150  and  _152
REMARK   59  A    between atoms: _152  and  _153
REMARK   60  A    between atoms: _152  and  _155
REMARK   61  A    between atoms: _155  and  _156
REMARK   62  A    between atoms: _159  and  _161
REMARK   63  A    between atoms: _161  and  _162
REMARK   64  A    between atoms: _161  and  _164
REMARK   65  A    between atoms: _164  and  _165
REMARK   66  A    between atoms: _165  and  _166
REMARK   67  A    between atoms: _166  and  _167
REMARK   68  A    between atoms: _176  and  _178
REMARK   69  A    between atoms: _178  and  _179
REMARK   70  A    between atoms: _178  and  _181
REMARK   71  A    between atoms: _181  and  _182
REMARK   72  A    between atoms: _187  and  _188
REMARK   73  A    between atoms: _190  and  _192
REMARK   74  A    between atoms: _192  and  _193
REMARK   75  A    between atoms: _192  and  _195
REMARK   76  A    between atoms: _195  and  _196
REMARK   77  A    between atoms: _198  and  _200
REMARK   78  A    between atoms: _200  and  _201
REMARK   79  A    between atoms: _200  and  _203
REMARK   80  A    between atoms: _203  and  _204
REMARK   81  A    between atoms: _207  and  _209
REMARK   82  A    between atoms: _209  and  _210
REMARK   83  A    between atoms: _212  and  _214
REMARK   84  A    between atoms: _214  and  _215
REMARK   85  A    between atoms: _214  and  _217
REMARK   86  A    between atoms: _221  and  _222
REMARK   87  A    between atoms: _227  and  _229
REMARK   88  A    between atoms: _229  and  _230
REMARK   89  A    between atoms: _233  and  _235
REMARK   90  A    between atoms: _235  and  _236
REMARK   91  A    between atoms: _235  and  _238
REMARK   92  A    between atoms: _238  and  _239
REMARK   93  A    between atoms: _243  and  _244
REMARK   94  A    between atoms: _249  and  _251
REMARK   95  A    between atoms: _251  and  _252
REMARK   96  A    between atoms: _251  and  _254
REMARK   97  A    between atoms: _254  and  _255
REMARK   98  A    between atoms: _261  and  _263
REMARK   99  A    between atoms: _263  and  _264
REMARK  100  A    between atoms: _263  and  _266
REMARK  101  A    between atoms: _266  and  _267
REMARK  102  A    between atoms: _267  and  _268
REMARK  103  A    between atoms: _270  and  _272
REMARK  104  A    between atoms: _272  and  _273
REMARK  105  A    between atoms: _272  and  _275
REMARK  106  A    between atoms: _275  and  _276
REMARK  107  A    between atoms: _279  and  _281
REMARK  108  A    between atoms: _281  and  _282
REMARK  109  A    between atoms: _285  and  _287
REMARK  110  A    between atoms: _287  and  _288
REMARK  111  A    between atoms: _287  and  _290
REMARK  112  A    between atoms: _290  and  _291
REMARK  113  A    between atoms: _291  and  _292
REMARK  114  A    between atoms: _295  and  _297
REMARK  115  A    between atoms: _297  and  _298
REMARK  116  A    between atoms: _297  and  _300
REMARK  117  A    between atoms: _300  and  _301
REMARK  118  A    between atoms: _307  and  _309
REMARK  119  A    between atoms: _309  and  _310
REMARK  120  A    between atoms: _312  and  _314
REMARK  121  A    between atoms: _314  and  _315
REMARK  122  A    between atoms: _314  and  _317
REMARK  123  A    between atoms: _320  and  _322
REMARK  124  A    between atoms: _322  and  _323
REMARK  125  A    between atoms: _322  and  _325
REMARK  126  A    between atoms: _328  and  _330
REMARK  127  A    between atoms: _330  and  _331
REMARK  128  A    between atoms: _333  and  _335
REMARK  129  A    between atoms: _335  and  _336
REMARK  130  A    between atoms: _335  and  _338
REMARK  131  A    between atoms: _338  and  _339
REMARK  132  A    between atoms: _339  and  _340
REMARK  133  A    between atoms: _342  and  _344
REMARK  134  A    between atoms: _344  and  _345
REMARK  135  A    between atoms: _344  and  _347
REMARK  136  A    between atoms: _347  and  _348
REMARK  137  A    between atoms: _353  and  _354
REMARK  138  A    between atoms: _356  and  _358
REMARK  139  A    between atoms: _358  and  _359
REMARK  140  A    between atoms: _358  and  _361
REMARK  141  A    between atoms: _361  and  _362
REMARK  142  A    between atoms: _365  and  _367
REMARK  143  A    between atoms: _367  and  _368
REMARK  144  A    between atoms: _367  and  _370
REMARK  145  A    between atoms: _373  and  _375
REMARK  146  A    between atoms: _375  and  _376
REMARK  147  A    between atoms: _375  and  _378
REMARK  148  A    between atoms: _378  and  _379
REMARK  149  A    between atoms: _382  and  _384
REMARK  150  A    between atoms: _384  and  _385
REMARK  151  A    between atoms: _384  and  _387
REMARK  152  A    between atoms: _387  and  _388
REMARK  153  A    between atoms: _391  and  _393
REMARK  154  A    between atoms: _393  and  _394
REMARK  155  A    between atoms: _396  and  _398
REMARK  156  A    between atoms: _398  and  _399
REMARK  157  A    between atoms: _402  and  _404
REMARK  158  A    between atoms: _404  and  _405
REMARK  159  A    between atoms: _404  and  _407
REMARK  160  A    between atoms: _407  and  _408
REMARK  161  A    between atoms: _410  and  _412
REMARK  162  A    between atoms: _412  and  _413
REMARK  163  A    between atoms: _412  and  _415
REMARK  164  A    between atoms: _415  and  _416
REMARK  165  A    between atoms: _421  and  _422
REMARK  166  A    between atoms: _424  and  _426
REMARK  167  A    between atoms: _426  and  _427
REMARK  168  A    between atoms: _426  and  _429
REMARK  169  A    between atoms: _429  and  _430
REMARK  170  A    between atoms: _433  and  _435
REMARK  171  A    between atoms: _435  and  _436
REMARK  172  A    between atoms: _435  and  _438
REMARK  173  A    between atoms: _438  and  _439
REMARK  174  A    between atoms: _441  and  _443
REMARK  175  A    between atoms: _443  and  _444
REMARK  176  A    between atoms: _446  and  _448
REMARK  177  A    between atoms: _448  and  _449
REMARK  178  A    between atoms: _448  and  _451
REMARK  179  A    between atoms: _451  and  _452
REMARK  180  A    between atoms: _457  and  _459
REMARK  181  A    between atoms: _459  and  _460
REMARK  182  A    between atoms: _463  and  _465
REMARK  183  A    between atoms: _465  and  _466
REMARK  184  A    between atoms: _465  and  _468
REMARK  185  A    between atoms: _468  and  _469
REMARK  186  A    between atoms: _469  and  _470
REMARK  187  A    between atoms: _472  and  _474
REMARK  188  A    between atoms: _474  and  _475
REMARK  189  A    between atoms: _474  and  _477
REMARK  190  A    between atoms: _477  and  _478
REMARK  191  A    between atoms: _481  and  _483
REMARK  192  A    between atoms: _483  and  _484
REMARK  193  A    between atoms: _483  and  _486
REMARK  194  A    between atoms: _486  and  _487
REMARK  195  A    between atoms: _490  and  _492
REMARK  196  A    between atoms: _492  and  _493
REMARK  197  A    between atoms: _496  and  _498
REMARK  198  A    between atoms: _498  and  _499
REMARK                            x       y       z     vdW  Elec       q    Type
REMARK                         _______ _______ _______ _____ _____    ______ ____
ROOT
ATOM      1  O   HOH     1      39.837  63.696  45.124  0.00  0.00    +0.000 OA
ENDROOT
TORSDOF 0
REMARK  Name = ../refined-set-2016/4s1g/4s1g_pocket.pdb
REMARK  198 active torsions:
REMARK  status: ('A' for Active; 'I' for Inactive)
REMARK    1  A    between atoms: _1  and  _3
REMARK    2  A    between atoms: _3  and  _4
REMARK    3  A    between atoms: _3  and  _6
REMARK    4  A    between atoms: _6  and  _7
REMARK    5  A    between atoms: _12  and  _13
REMARK    6  A    between atoms: _15  and  _17
REMARK    7  A    between atoms: _17  and  _18
REMARK    8  A    between atoms: _17  and  _20
REMARK    9  A    between atoms: _20  and  _21
REMARK   10  A    between atoms: _24  and  _26
REMARK   11  A    between atoms: _26  and  _27
REMARK   12  A    between atoms: _26  and  _29
REMARK   13  A    between atoms: _29  and  _30
REMARK   14  A    between atoms: _30  and  _31
REMARK   15  A    between atoms: _36  and  _38
REMARK   16  A    between atoms: _38  and  _39
REMARK   17  A    between atoms: _38  and  _41
REMARK   18  A    between atoms: _41  and  _42
REMARK   19  A    between atoms: _47  and  _48
REMARK   20  A    between atoms: _50  and  _52
REMARK   21  A    between atoms: _52  and  _53
REMARK   22  A    between atoms: _52  and  _55
REMARK   23  A    between atoms: _55  and  _56
REMARK   24  A    between atoms: _61  and  _62
REMARK   25  A    between atoms: _64  and  _66
REMARK   26  A    between atoms: _66  and  _67
REMARK   27  A    between atoms: _66  and  _69
REMARK   28  A    between atoms: _72  and  _74
REMARK   29  A    between atoms: _74  and  _75
REMARK   30  A    between atoms: _74  and  _77
REMARK   31  A    between atoms: _77  and  _78
REMARK   32  A    between atoms: _84  and  _86
REMARK   33  A    between atoms: _86  and  _87
REMARK   34  A    between atoms: _86  and  _89
REMARK   35  A    between atoms: _89  and  _90
REMARK   36  A    between atoms: _93  and  _95
REMARK   37  A    between atoms: _95  and  _96
REMARK   38  A    between atoms: _95  and  _98
REMARK   39  A    between atoms: _98  and  _99
REMARK   40  A    between atoms: _102  and  _104
REMARK   41  A    between atoms: _104  and  _105
REMARK   42  A    between atoms: _107  and  _109
REMARK   43  A    between atoms: _109  and  _110
REMARK   44  A    between atoms: _109  and  _112
REMARK   45  A    between atoms: _112  and  _113
REMARK   46  A    between atoms: _115  and  _117
REMARK   47  A    between atoms: _117  and  _118
REMARK   48  A    between atoms: _117  and  _120
REMARK   49  A    between atoms: _120  and  _121
REMARK   50  A    between atoms: _123  and  _125
REMARK   51  A    between atoms: _125  and  _126
REMARK   52  A    between atoms: _125  and  _128
REMARK   53  A    between atoms: _128  and  _129
REMARK   54  A    between atoms: _134  and  _136
REMARK   55  A    between atoms: _136  and  _137
REMARK   56  A    between atoms: _136  and  _139
REMARK   57  A    between atoms: _139  and  _140
REMARK   58  A    between atoms: _150  and  _152
REMARK   59  A    between atoms: _152  and  _153
REMARK   60  A    between atoms: _152  and  _155
REMARK   61  A    between atoms: _155  and  _156
REMARK   62  A    between atoms: _159  and  _161
REMARK   63  A    between atoms: _161  and  _162
REMARK   64  A    between atoms: _161  and  _164
REMARK   65  A    between atoms: _164  and  _165
REMARK   66  A    between atoms: _165  and  _166
REMARK   67  A    between atoms: _166  and  _167
REMARK   68  A    between atoms: _176  and  _178
REMARK   69  A    between atoms: _178  and  _179
REMARK   70  A    between atoms: _178  and  _181
REMARK   71  A    between atoms: _181  and  _182
REMARK   72  A    between atoms: _187  and  _188
REMARK   73  A    between atoms: _190  and  _192
REMARK   74  A    between atoms: _192  and  _193
REMARK   75  A    between atoms: _192  and  _195
REMARK   76  A    between atoms: _195  and  _196
REMARK   77  A    between atoms: _198  and  _200
REMARK   78  A    between atoms: _200  and  _201
REMARK   79  A    between atoms: _200  and  _203
REMARK   80  A    between atoms: _203  and  _204
REMARK   81  A    between atoms: _207  and  _209
REMARK   82  A    between atoms: _209  and  _210
REMARK   83  A    between atoms: _212  and  _214
REMARK   84  A    between atoms: _214  and  _215
REMARK   85  A    between atoms: _214  and  _217
REMARK   86  A    between atoms: _221  and  _222
REMARK   87  A    between atoms: _227  and  _229
REMARK   88  A    between atoms: _229  and  _230
REMARK   89  A    between atoms: _233  and  _235
REMARK   90  A    between atoms: _235  and  _236
REMARK   91  A    between atoms: _235  and  _238
REMARK   92  A    between atoms: _238  and  _239
REMARK   93  A    between atoms: _243  and  _244
REMARK   94  A    between atoms: _249  and  _251
REMARK   95  A    between atoms: _251  and  _252
REMARK   96  A    between atoms: _251  and  _254
REMARK   97  A    between atoms: _254  and  _255
REMARK   98  A    between atoms: _261  and  _263
REMARK   99  A    between atoms: _263  and  _264
REMARK  100  A    between atoms: _263  and  _266
REMARK  101  A    between atoms: _266  and  _267
REMARK  102  A    between atoms: _267  and  _268
REMARK  103  A    between atoms: _270  and  _272
REMARK  104  A    between atoms: _272  and  _273
REMARK  105  A    between atoms: _272  and  _275
REMARK  106  A    between atoms: _275  and  _276
REMARK  107  A    between atoms: _279  and  _281
REMARK  108  A    between atoms: _281  and  _282
REMARK  109  A    between atoms: _285  and  _287
REMARK  110  A    between atoms: _287  and  _288
REMARK  111  A    between atoms: _287  and  _290
REMARK  112  A    between atoms: _290  and  _291
REMARK  113  A    between atoms: _291  and  _292
REMARK  114  A    between atoms: _295  and  _297
REMARK  115  A    between atoms: _297  and  _298
REMARK  116  A    between atoms: _297  and  _300
REMARK  117  A    between atoms: _300  and  _301
REMARK  118  A    between atoms: _307  and  _309
REMARK  119  A    between atoms: _309  and  _310
REMARK  120  A    between atoms: _312  and  _314
REMARK  121  A    between atoms: _314  and  _315
REMARK  122  A    between atoms: _314  and  _317
REMARK  123  A    between atoms: _320  and  _322
REMARK  124  A    between atoms: _322  and  _323
REMARK  125  A    between atoms: _322  and  _325
REMARK  126  A    between atoms: _328  and  _330
REMARK  127  A    between atoms: _330  and  _331
REMARK  128  A    between atoms: _333  and  _335
REMARK  129  A    between atoms: _335  and  _336
REMARK  130  A    between atoms: _335  and  _338
REMARK  131  A    between atoms: _338  and  _339
REMARK  132  A    between atoms: _339  and  _340
REMARK  133  A    between atoms: _342  and  _344
REMARK  134  A    between atoms: _344  and  _345
REMARK  135  A    between atoms: _344  and  _347
REMARK  136  A    between atoms: _347  and  _348
REMARK  137  A    between atoms: _353  and  _354
REMARK  138  A    between atoms: _356  and  _358
REMARK  139  A    between atoms: _358  and  _359
REMARK  140  A    between atoms: _358  and  _361
REMARK  141  A    between atoms: _361  and  _362
REMARK  142  A    between atoms: _365  and  _367
REMARK  143  A    between atoms: _367  and  _368
REMARK  144  A    between atoms: _367  and  _370
REMARK  145  A    between atoms: _373  and  _375
REMARK  146  A    between atoms: _375  and  _376
REMARK  147  A    between atoms: _375  and  _378
REMARK  148  A    between atoms: _378  and  _379
REMARK  149  A    between atoms: _382  and  _384
REMARK  150  A    between atoms: _384  and  _385
REMARK  151  A    between atoms: _384  and  _387
REMARK  152  A    between atoms: _387  and  _388
REMARK  153  A    between atoms: _391  and  _393
REMARK  154  A    between atoms: _393  and  _394
REMARK  155  A    between atoms: _396  and  _398
REMARK  156  A    between atoms: _398  and  _399
REMARK  157  A    between atoms: _402  and  _404
REMARK  158  A    between atoms: _404  and  _405
REMARK  159  A    between atoms: _404  and  _407
REMARK  160  A    between atoms: _407  and  _408
REMARK  161  A    between atoms: _410  and  _412
REMARK  162  A    between atoms: _412  and  _413
REMARK  163  A    between atoms: _412  and  _415
REMARK  164  A    between atoms: _415  and  _416
REMARK  165  A    between atoms: _421  and  _422
REMARK  166  A    between atoms: _424  and  _426
REMARK  167  A    between atoms: _426  and  _427
REMARK  168  A    between atoms: _426  and  _429
REMARK  169  A    between atoms: _429  and  _430
REMARK  170  A    between atoms: _433  and  _435
REMARK  171  A    between atoms: _435  and  _436
REMARK  172  A    between atoms: _435  and  _438
REMARK  173  A    between atoms: _438  and  _439
REMARK  174  A    between atoms: _441  and  _443
REMARK  175  A    between atoms: _443  and  _444
REMARK  176  A    between atoms: _446  and  _448
REMARK  177  A    between atoms: _448  and  _449
REMARK  178  A    between atoms: _448  and  _451
REMARK  179  A    between atoms: _451  and  _452
REMARK  180  A    between atoms: _457  and  _459
REMARK  181  A    between atoms: _459  and  _460
REMARK  182  A    between atoms: _463  and  _465
REMARK  183  A    between atoms: _465  and  _466
REMARK  184  A    between atoms: _465  and  _468
REMARK  185  A    between atoms: _468  and  _469
REMARK  186  A    between atoms: _469  and  _470
REMARK  187  A    between atoms: _472  and  _474
REMARK  188  A    between atoms: _474  and  _475
REMARK  189  A    between atoms: _474  and  _477
REMARK  190  A    between atoms: _477  and  _478
REMARK  191  A    between atoms: _481  and  _483
REMARK  192  A    between atoms: _483  and  _484
REMARK  193  A    between atoms: _483  and  _486
REMARK  194  A    between atoms: _486  and  _487
REMARK  195  A    between atoms: _490  and  _492
REMARK  196  A    between atoms: _492  and  _493
REMARK  197  A    between atoms: _496  and  _498
REMARK  198  A    between atoms: _498  and  _499
REMARK                            x       y       z     vdW  Elec       q    Type
REMARK                         _______ _______ _______ _____ _____    ______ ____
ROOT
ATOM      1  O   HOH     1      34.582  64.587  49.500  0.00  0.00    +0.000 OA
ENDROOT
TORSDOF 0
REMARK  Name = ../refined-set-2016/4s1g/4s1g_pocket.pdb
REMARK  198 active torsions:
REMARK  status: ('A' for Active; 'I' for Inactive)
REMARK    1  A    between atoms: _1  and  _3
REMARK    2  A    between atoms: _3  and  _4
REMARK    3  A    between atoms: _3  and  _6
REMARK    4  A    between atoms: _6  and  _7
REMARK    5  A    between atoms: _12  and  _13
REMARK    6  A    between atoms: _15  and  _17
REMARK    7  A    between atoms: _17  and  _18
REMARK    8  A    between atoms: _17  and  _20
REMARK    9  A    between atoms: _20  and  _21
REMARK   10  A    between atoms: _24  and  _26
REMARK   11  A    between atoms: _26  and  _27
REMARK   12  A    between atoms: _26  and  _29
REMARK   13  A    between atoms: _29  and  _30
REMARK   14  A    between atoms: _30  and  _31
REMARK   15  A    between atoms: _36  and  _38
REMARK   16  A    between atoms: _38  and  _39
REMARK   17  A    between atoms: _38  and  _41
REMARK   18  A    between atoms: _41  and  _42
REMARK   19  A    between atoms: _47  and  _48
REMARK   20  A    between atoms: _50  and  _52
REMARK   21  A    between atoms: _52  and  _53
REMARK   22  A    between atoms: _52  and  _55
REMARK   23  A    between atoms: _55  and  _56
REMARK   24  A    between atoms: _61  and  _62
REMARK   25  A    between atoms: _64  and  _66
REMARK   26  A    between atoms: _66  and  _67
REMARK   27  A    between atoms: _66  and  _69
REMARK   28  A    between atoms: _72  and  _74
REMARK   29  A    between atoms: _74  and  _75
REMARK   30  A    between atoms: _74  and  _77
REMARK   31  A    between atoms: _77  and  _78
REMARK   32  A    between atoms: _84  and  _86
REMARK   33  A    between atoms: _86  and  _87
REMARK   34  A    between atoms: _86  and  _89
REMARK   35  A    between atoms: _89  and  _90
REMARK   36  A    between atoms: _93  and  _95
REMARK   37  A    between atoms: _95  and  _96
REMARK   38  A    between atoms: _95  and  _98
REMARK   39  A    between atoms: _98  and  _99
REMARK   40  A    between atoms: _102  and  _104
REMARK   41  A    between atoms: _104  and  _105
REMARK   42  A    between atoms: _107  and  _109
REMARK   43  A    between atoms: _109  and  _110
REMARK   44  A    between atoms: _109  and  _112
REMARK   45  A    between atoms: _112  and  _113
REMARK   46  A    between atoms: _115  and  _117
REMARK   47  A    between atoms: _117  and  _118
REMARK   48  A    between atoms: _117  and  _120
REMARK   49  A    between atoms: _120  and  _121
REMARK   50  A    between atoms: _123  and  _125
REMARK   51  A    between atoms: _125  and  _126
REMARK   52  A    between atoms: _125  and  _128
REMARK   53  A    between atoms: _128  and  _129
REMARK   54  A    between atoms: _134  and  _136
REMARK   55  A    between atoms: _136  and  _137
REMARK   56  A    between atoms: _136  and  _139
REMARK   57  A    between atoms: _139  and  _140
REMARK   58  A    between atoms: _150  and  _152
REMARK   59  A    between atoms: _152  and  _153
REMARK   60  A    between atoms: _152  and  _155
REMARK   61  A    between atoms: _155  and  _156
REMARK   62  A    between atoms: _159  and  _161
REMARK   63  A    between atoms: _161  and  _162
REMARK   64  A    between atoms: _161  and  _164
REMARK   65  A    between atoms: _164  and  _165
REMARK   66  A    between atoms: _165  and  _166
REMARK   67  A    between atoms: _166  and  _167
REMARK   68  A    between atoms: _176  and  _178
REMARK   69  A    between atoms: _178  and  _179
REMARK   70  A    between atoms: _178  and  _181
REMARK   71  A    between atoms: _181  and  _182
REMARK   72  A    between atoms: _187  and  _188
REMARK   73  A    between atoms: _190  and  _192
REMARK   74  A    between atoms: _192  and  _193
REMARK   75  A    between atoms: _192  and  _195
REMARK   76  A    between atoms: _195  and  _196
REMARK   77  A    between atoms: _198  and  _200
REMARK   78  A    between atoms: _200  and  _201
REMARK   79  A    between atoms: _200  and  _203
REMARK   80  A    between atoms: _203  and  _204
REMARK   81  A    between atoms: _207  and  _209
REMARK   82  A    between atoms: _209  and  _210
REMARK   83  A    between atoms: _212  and  _214
REMARK   84  A    between atoms: _214  and  _215
REMARK   85  A    between atoms: _214  and  _217
REMARK   86  A    between atoms: _221  and  _222
REMARK   87  A    between atoms: _227  and  _229
REMARK   88  A    between atoms: _229  and  _230
REMARK   89  A    between atoms: _233  and  _235
REMARK   90  A    between atoms: _235  and  _236
REMARK   91  A    between atoms: _235  and  _238
REMARK   92  A    between atoms: _238  and  _239
REMARK   93  A    between atoms: _243  and  _244
REMARK   94  A    between atoms: _249  and  _251
REMARK   95  A    between atoms: _251  and  _252
REMARK   96  A    between atoms: _251  and  _254
REMARK   97  A    between atoms: _254  and  _255
REMARK   98  A    between atoms: _261  and  _263
REMARK   99  A    between atoms: _263  and  _264
REMARK  100  A    between atoms: _263  and  _266
REMARK  101  A    between atoms: _266  and  _267
REMARK  102  A    between atoms: _267  and  _268
REMARK  103  A    between atoms: _270  and  _272
REMARK  104  A    between atoms: _272  and  _273
REMARK  105  A    between atoms: _272  and  _275
REMARK  106  A    between atoms: _275  and  _276
REMARK  107  A    between atoms: _279  and  _281
REMARK  108  A    between atoms: _281  and  _282
REMARK  109  A    between atoms: _285  and  _287
REMARK  110  A    between atoms: _287  and  _288
REMARK  111  A    between atoms: _287  and  _290
REMARK  112  A    between atoms: _290  and  _291
REMARK  113  A    between atoms: _291  and  _292
REMARK  114  A    between atoms: _295  and  _297
REMARK  115  A    between atoms: _297  and  _298
REMARK  116  A    between atoms: _297  and  _300
REMARK  117  A    between atoms: _300  and  _301
REMARK  118  A    between atoms: _307  and  _309
REMARK  119  A    between atoms: _309  and  _310
REMARK  120  A    between atoms: _312  and  _314
REMARK  121  A    between atoms: _314  and  _315
REMARK  122  A    between atoms: _314  and  _317
REMARK  123  A    between atoms: _320  and  _322
REMARK  124  A    between atoms: _322  and  _323
REMARK  125  A    between atoms: _322  and  _325
REMARK  126  A    between atoms: _328  and  _330
REMARK  127  A    between atoms: _330  and  _331
REMARK  128  A    between atoms: _333  and  _335
REMARK  129  A    between atoms: _335  and  _336
REMARK  130  A    between atoms: _335  and  _338
REMARK  131  A    between atoms: _338  and  _339
REMARK  132  A    between atoms: _339  and  _340
REMARK  133  A    between atoms: _342  and  _344
REMARK  134  A    between atoms: _344  and  _345
REMARK  135  A    between atoms: _344  and  _347
REMARK  136  A    between atoms: _347  and  _348
REMARK  137  A    between atoms: _353  and  _354
REMARK  138  A    between atoms: _356  and  _358
REMARK  139  A    between atoms: _358  and  _359
REMARK  140  A    between atoms: _358  and  _361
REMARK  141  A    between atoms: _361  and  _362
REMARK  142  A    between atoms: _365  and  _367
REMARK  143  A    between atoms: _367  and  _368
REMARK  144  A    between atoms: _367  and  _370
REMARK  145  A    between atoms: _373  and  _375
REMARK  146  A    between atoms: _375  and  _376
REMARK  147  A    between atoms: _375  and  _378
REMARK  148  A    between atoms: _378  and  _379
REMARK  149  A    between atoms: _382  and  _384
REMARK  150  A    between atoms: _384  and  _385
REMARK  151  A    between atoms: _384  and  _387
REMARK  152  A    between atoms: _387  and  _388
REMARK  153  A    between atoms: _391  and  _393
REMARK  154  A    between atoms: _393  and  _394
REMARK  155  A    between atoms: _396  and  _398
REMARK  156  A    between atoms: _398  and  _399
REMARK  157  A    between atoms: _402  and  _404
REMARK  158  A    between atoms: _404  and  _405
REMARK  159  A    between atoms: _404  and  _407
REMARK  160  A    between atoms: _407  and  _408
REMARK  161  A    between atoms: _410  and  _412
REMARK  162  A    between atoms: _412  and  _413
REMARK  163  A    between atoms: _412  and  _415
REMARK  164  A    between atoms: _415  and  _416
REMARK  165  A    between atoms: _421  and  _422
REMARK  166  A    between atoms: _424  and  _426
REMARK  167  A    between atoms: _426  and  _427
REMARK  168  A    between atoms: _426  and  _429
REMARK  169  A    between atoms: _429  and  _430
REMARK  170  A    between atoms: _433  and  _435
REMARK  171  A    between atoms: _435  and  _436
REMARK  172  A    between atoms: _435  and  _438
REMARK  173  A    between atoms: _438  and  _439
REMARK  174  A    between atoms: _441  and  _443
REMARK  175  A    between atoms: _443  and  _444
REMARK  176  A    between atoms: _446  and  _448
REMARK  177  A    between atoms: _448  and  _449
REMARK  178  A    between atoms: _448  and  _451
REMARK  179  A    between atoms: _451  and  _452
REMARK  180  A    between atoms: _457  and  _459
REMARK  181  A    between atoms: _459  and  _460
REMARK  182  A    between atoms: _463  and  _465
REMARK  183  A    between atoms: _465  and  _466
REMARK  184  A    between atoms: _465  and  _468
REMARK  185  A    between atoms: _468  and  _469
REMARK  186  A    between atoms: _469  and  _470
REMARK  187  A    between atoms: _472  and  _474
REMARK  188  A    between atoms: _474  and  _475
REMARK  189  A    between atoms: _474  and  _477
REMARK  190  A    between atoms: _477  and  _478
REMARK  191  A    between atoms: _481  and  _483
REMARK  192  A    between atoms: _483  and  _484
REMARK  193  A    between atoms: _483  and  _486
REMARK  194  A    between atoms: _486  and  _487
REMARK  195  A    between atoms: _490  and  _492
REMARK  196  A    between atoms: _492  and  _493
REMARK  197  A    between atoms: _496  and  _498
REMARK  198  A    between atoms: _498  and  _499
REMARK                            x       y       z     vdW  Elec       q    Type
REMARK                         _______ _______ _______ _____ _____    ______ ____
ROOT
ATOM      1  O   HOH     1      40.613  54.814  42.121  0.00  0.00    +0.000 OA
ENDROOT
TORSDOF 0
REMARK  Name = ../refined-set-2016/4s1g/4s1g_pocket.pdb
REMARK  198 active torsions:
REMARK  status: ('A' for Active; 'I' for Inactive)
REMARK    1  A    between atoms: _1  and  _3
REMARK    2  A    between atoms: _3  and  _4
REMARK    3  A    between atoms: _3  and  _6
REMARK    4  A    between atoms: _6  and  _7
REMARK    5  A    between atoms: _12  and  _13
REMARK    6  A    between atoms: _15  and  _17
REMARK    7  A    between atoms: _17  and  _18
REMARK    8  A    between atoms: _17  and  _20
REMARK    9  A    between atoms: _20  and  _21
REMARK   10  A    between atoms: _24  and  _26
REMARK   11  A    between atoms: _26  and  _27
REMARK   12  A    between atoms: _26  and  _29
REMARK   13  A    between atoms: _29  and  _30
REMARK   14  A    between atoms: _30  and  _31
REMARK   15  A    between atoms: _36  and  _38
REMARK   16  A    between atoms: _38  and  _39
REMARK   17  A    between atoms: _38  and  _41
REMARK   18  A    between atoms: _41  and  _42
REMARK   19  A    between atoms: _47  and  _48
REMARK   20  A    between atoms: _50  and  _52
REMARK   21  A    between atoms: _52  and  _53
REMARK   22  A    between atoms: _52  and  _55
REMARK   23  A    between atoms: _55  and  _56
REMARK   24  A    between atoms: _61  and  _62
REMARK   25  A    between atoms: _64  and  _66
REMARK   26  A    between atoms: _66  and  _67
REMARK   27  A    between atoms: _66  and  _69
REMARK   28  A    between atoms: _72  and  _74
REMARK   29  A    between atoms: _74  and  _75
REMARK   30  A    between atoms: _74  and  _77
REMARK   31  A    between atoms: _77  and  _78
REMARK   32  A    between atoms: _84  and  _86
REMARK   33  A    between atoms: _86  and  _87
REMARK   34  A    between atoms: _86  and  _89
REMARK   35  A    between atoms: _89  and  _90
REMARK   36  A    between atoms: _93  and  _95
REMARK   37  A    between atoms: _95  and  _96
REMARK   38  A    between atoms: _95  and  _98
REMARK   39  A    between atoms: _98  and  _99
REMARK   40  A    between atoms: _102  and  _104
REMARK   41  A    between atoms: _104  and  _105
REMARK   42  A    between atoms: _107  and  _109
REMARK   43  A    between atoms: _109  and  _110
REMARK   44  A    between atoms: _109  and  _112
REMARK   45  A    between atoms: _112  and  _113
REMARK   46  A    between atoms: _115  and  _117
REMARK   47  A    between atoms: _117  and  _118
REMARK   48  A    between atoms: _117  and  _120
REMARK   49  A    between atoms: _120  and  _121
REMARK   50  A    between atoms: _123  and  _125
REMARK   51  A    between atoms: _125  and  _126
REMARK   52  A    between atoms: _125  and  _128
REMARK   53  A    between atoms: _128  and  _129
REMARK   54  A    between atoms: _134  and  _136
REMARK   55  A    between atoms: _136  and  _137
REMARK   56  A    between atoms: _136  and  _139
REMARK   57  A    between atoms: _139  and  _140
REMARK   58  A    between atoms: _150  and  _152
REMARK   59  A    between atoms: _152  and  _153
REMARK   60  A    between atoms: _152  and  _155
REMARK   61  A    between atoms: _155  and  _156
REMARK   62  A    between atoms: _159  and  _161
REMARK   63  A    between atoms: _161  and  _162
REMARK   64  A    between atoms: _161  and  _164
REMARK   65  A    between atoms: _164  and  _165
REMARK   66  A    between atoms: _165  and  _166
REMARK   67  A    between atoms: _166  and  _167
REMARK   68  A    between atoms: _176  and  _178
REMARK   69  A    between atoms: _178  and  _179
REMARK   70  A    between atoms: _178  and  _181
REMARK   71  A    between atoms: _181  and  _182
REMARK   72  A    between atoms: _187  and  _188
REMARK   73  A    between atoms: _190  and  _192
REMARK   74  A    between atoms: _192  and  _193
REMARK   75  A    between atoms: _192  and  _195
REMARK   76  A    between atoms: _195  and  _196
REMARK   77  A    between atoms: _198  and  _200
REMARK   78  A    between atoms: _200  and  _201
REMARK   79  A    between atoms: _200  and  _203
REMARK   80  A    between atoms: _203  and  _204
REMARK   81  A    between atoms: _207  and  _209
REMARK   82  A    between atoms: _209  and  _210
REMARK   83  A    between atoms: _212  and  _214
REMARK   84  A    between atoms: _214  and  _215
REMARK   85  A    between atoms: _214  and  _217
REMARK   86  A    between atoms: _221  and  _222
REMARK   87  A    between atoms: _227  and  _229
REMARK   88  A    between atoms: _229  and  _230
REMARK   89  A    between atoms: _233  and  _235
REMARK   90  A    between atoms: _235  and  _236
REMARK   91  A    between atoms: _235  and  _238
REMARK   92  A    between atoms: _238  and  _239
REMARK   93  A    between atoms: _243  and  _244
REMARK   94  A    between atoms: _249  and  _251
REMARK   95  A    between atoms: _251  and  _252
REMARK   96  A    between atoms: _251  and  _254
REMARK   97  A    between atoms: _254  and  _255
REMARK   98  A    between atoms: _261  and  _263
REMARK   99  A    between atoms: _263  and  _264
REMARK  100  A    between atoms: _263  and  _266
REMARK  101  A    between atoms: _266  and  _267
REMARK  102  A    between atoms: _267  and  _268
REMARK  103  A    between atoms: _270  and  _272
REMARK  104  A    between atoms: _272  and  _273
REMARK  105  A    between atoms: _272  and  _275
REMARK  106  A    between atoms: _275  and  _276
REMARK  107  A    between atoms: _279  and  _281
REMARK  108  A    between atoms: _281  and  _282
REMARK  109  A    between atoms: _285  and  _287
REMARK  110  A    between atoms: _287  and  _288
REMARK  111  A    between atoms: _287  and  _290
REMARK  112  A    between atoms: _290  and  _291
REMARK  113  A    between atoms: _291  and  _292
REMARK  114  A    between atoms: _295  and  _297
REMARK  115  A    between atoms: _297  and  _298
REMARK  116  A    between atoms: _297  and  _300
REMARK  117  A    between atoms: _300  and  _301
REMARK  118  A    between atoms: _307  and  _309
REMARK  119  A    between atoms: _309  and  _310
REMARK  120  A    between atoms: _312  and  _314
REMARK  121  A    between atoms: _314  and  _315
REMARK  122  A    between atoms: _314  and  _317
REMARK  123  A    between atoms: _320  and  _322
REMARK  124  A    between atoms: _322  and  _323
REMARK  125  A    between atoms: _322  and  _325
REMARK  126  A    between atoms: _328  and  _330
REMARK  127  A    between atoms: _330  and  _331
REMARK  128  A    between atoms: _333  and  _335
REMARK  129  A    between atoms: _335  and  _336
REMARK  130  A    between atoms: _335  and  _338
REMARK  131  A    between atoms: _338  and  _339
REMARK  132  A    between atoms: _339  and  _340
REMARK  133  A    between atoms: _342  and  _344
REMARK  134  A    between atoms: _344  and  _345
REMARK  135  A    between atoms: _344  and  _347
REMARK  136  A    between atoms: _347  and  _348
REMARK  137  A    between atoms: _353  and  _354
REMARK  138  A    between atoms: _356  and  _358
REMARK  139  A    between atoms: _358  and  _359
REMARK  140  A    between atoms: _358  and  _361
REMARK  141  A    between atoms: _361  and  _362
REMARK  142  A    between atoms: _365  and  _367
REMARK  143  A    between atoms: _367  and  _368
REMARK  144  A    between atoms: _367  and  _370
REMARK  145  A    between atoms: _373  and  _375
REMARK  146  A    between atoms: _375  and  _376
REMARK  147  A    between atoms: _375  and  _378
REMARK  148  A    between atoms: _378  and  _379
REMARK  149  A    between atoms: _382  and  _384
REMARK  150  A    between atoms: _384  and  _385
REMARK  151  A    between atoms: _384  and  _387
REMARK  152  A    between atoms: _387  and  _388
REMARK  153  A    between atoms: _391  and  _393
REMARK  154  A    between atoms: _393  and  _394
REMARK  155  A    between atoms: _396  and  _398
REMARK  156  A    between atoms: _398  and  _399
REMARK  157  A    between atoms: _402  and  _404
REMARK  158  A    between atoms: _404  and  _405
REMARK  159  A    between atoms: _404  and  _407
REMARK  160  A    between atoms: _407  and  _408
REMARK  161  A    between atoms: _410  and  _412
REMARK  162  A    between atoms: _412  and  _413
REMARK  163  A    between atoms: _412  and  _415
REMARK  164  A    between atoms: _415  and  _416
REMARK  165  A    between atoms: _421  and  _422
REMARK  166  A    between atoms: _424  and  _426
REMARK  167  A    between atoms: _426  and  _427
REMARK  168  A    between atoms: _426  and  _429
REMARK  169  A    between atoms: _429  and  _430
REMARK  170  A    between atoms: _433  and  _435
REMARK  171  A    between atoms: _435  and  _436
REMARK  172  A    between atoms: _435  and  _438
REMARK  173  A    between atoms: _438  and  _439
REMARK  174  A    between atoms: _441  and  _443
REMARK  175  A    between atoms: _443  and  _444
REMARK  176  A    between atoms: _446  and  _448
REMARK  177  A    between atoms: _448  and  _449
REMARK  178  A    between atoms: _448  and  _451
REMARK  179  A    between atoms: _451  and  _452
REMARK  180  A    between atoms: _457  and  _459
REMARK  181  A    between atoms: _459  and  _460
REMARK  182  A    between atoms: _463  and  _465
REMARK  183  A    between atoms: _465  and  _466
REMARK  184  A    between atoms: _465  and  _468
REMARK  185  A    between atoms: _468  and  _469
REMARK  186  A    between atoms: _469  and  _470
REMARK  187  A    between atoms: _472  and  _474
REMARK  188  A    between atoms: _474  and  _475
REMARK  189  A    between atoms: _474  and  _477
REMARK  190  A    between atoms: _477  and  _478
REMARK  191  A    between atoms: _481  and  _483
REMARK  192  A    between atoms: _483  and  _484
REMARK  193  A    between atoms: _483  and  _486
REMARK  194  A    between atoms: _486  and  _487
REMARK  195  A    between atoms: _490  and  _492
REMARK  196  A    between atoms: _492  and  _493
REMARK  197  A    between atoms: _496  and  _498
REMARK  198  A    between atoms: _498  and  _499
REMARK                            x       y       z     vdW  Elec       q    Type
REMARK                         _______ _______ _______ _____ _____    ______ ____
ROOT
ATOM      1  O   HOH     1      39.462  67.582  36.774  0.00  0.00    +0.000 OA
ENDROOT
TORSDOF 0
REMARK  Name = ../refined-set-2016/4s1g/4s1g_pocket.pdb
REMARK  198 active torsions:
REMARK  status: ('A' for Active; 'I' for Inactive)
REMARK    1  A    between atoms: _1  and  _3
REMARK    2  A    between atoms: _3  and  _4
REMARK    3  A    between atoms: _3  and  _6
REMARK    4  A    between atoms: _6  and  _7
REMARK    5  A    between atoms: _12  and  _13
REMARK    6  A    between atoms: _15  and  _17
REMARK    7  A    between atoms: _17  and  _18
REMARK    8  A    between atoms: _17  and  _20
REMARK    9  A    between atoms: _20  and  _21
REMARK   10  A    between atoms: _24  and  _26
REMARK   11  A    between atoms: _26  and  _27
REMARK   12  A    between atoms: _26  and  _29
REMARK   13  A    between atoms: _29  and  _30
REMARK   14  A    between atoms: _30  and  _31
REMARK   15  A    between atoms: _36  and  _38
REMARK   16  A    between atoms: _38  and  _39
REMARK   17  A    between atoms: _38  and  _41
REMARK   18  A    between atoms: _41  and  _42
REMARK   19  A    between atoms: _47  and  _48
REMARK   20  A    between atoms: _50  and  _52
REMARK   21  A    between atoms: _52  and  _53
REMARK   22  A    between atoms: _52  and  _55
REMARK   23  A    between atoms: _55  and  _56
REMARK   24  A    between atoms: _61  and  _62
REMARK   25  A    between atoms: _64  and  _66
REMARK   26  A    between atoms: _66  and  _67
REMARK   27  A    between atoms: _66  and  _69
REMARK   28  A    between atoms: _72  and  _74
REMARK   29  A    between atoms: _74  and  _75
REMARK   30  A    between atoms: _74  and  _77
REMARK   31  A    between atoms: _77  and  _78
REMARK   32  A    between atoms: _84  and  _86
REMARK   33  A    between atoms: _86  and  _87
REMARK   34  A    between atoms: _86  and  _89
REMARK   35  A    between atoms: _89  and  _90
REMARK   36  A    between atoms: _93  and  _95
REMARK   37  A    between atoms: _95  and  _96
REMARK   38  A    between atoms: _95  and  _98
REMARK   39  A    between atoms: _98  and  _99
REMARK   40  A    between atoms: _102  and  _104
REMARK   41  A    between atoms: _104  and  _105
REMARK   42  A    between atoms: _107  and  _109
REMARK   43  A    between atoms: _109  and  _110
REMARK   44  A    between atoms: _109  and  _112
REMARK   45  A    between atoms: _112  and  _113
REMARK   46  A    between atoms: _115  and  _117
REMARK   47  A    between atoms: _117  and  _118
REMARK   48  A    between atoms: _117  and  _120
REMARK   49  A    between atoms: _120  and  _121
REMARK   50  A    between atoms: _123  and  _125
REMARK   51  A    between atoms: _125  and  _126
REMARK   52  A    between atoms: _125  and  _128
REMARK   53  A    between atoms: _128  and  _129
REMARK   54  A    between atoms: _134  and  _136
REMARK   55  A    between atoms: _136  and  _137
REMARK   56  A    between atoms: _136  and  _139
REMARK   57  A    between atoms: _139  and  _140
REMARK   58  A    between atoms: _150  and  _152
REMARK   59  A    between atoms: _152  and  _153
REMARK   60  A    between atoms: _152  and  _155
REMARK   61  A    between atoms: _155  and  _156
REMARK   62  A    between atoms: _159  and  _161
REMARK   63  A    between atoms: _161  and  _162
REMARK   64  A    between atoms: _161  and  _164
REMARK   65  A    between atoms: _164  and  _165
REMARK   66  A    between atoms: _165  and  _166
REMARK   67  A    between atoms: _166  and  _167
REMARK   68  A    between atoms: _176  and  _178
REMARK   69  A    between atoms: _178  and  _179
REMARK   70  A    between atoms: _178  and  _181
REMARK   71  A    between atoms: _181  and  _182
REMARK   72  A    between atoms: _187  and  _188
REMARK   73  A    between atoms: _190  and  _192
REMARK   74  A    between atoms: _192  and  _193
REMARK   75  A    between atoms: _192  and  _195
REMARK   76  A    between atoms: _195  and  _196
REMARK   77  A    between atoms: _198  and  _200
REMARK   78  A    between atoms: _200  and  _201
REMARK   79  A    between atoms: _200  and  _203
REMARK   80  A    between atoms: _203  and  _204
REMARK   81  A    between atoms: _207  and  _209
REMARK   82  A    between atoms: _209  and  _210
REMARK   83  A    between atoms: _212  and  _214
REMARK   84  A    between atoms: _214  and  _215
REMARK   85  A    between atoms: _214  and  _217
REMARK   86  A    between atoms: _221  and  _222
REMARK   87  A    between atoms: _227  and  _229
REMARK   88  A    between atoms: _229  and  _230
REMARK   89  A    between atoms: _233  and  _235
REMARK   90  A    between atoms: _235  and  _236
REMARK   91  A    between atoms: _235  and  _238
REMARK   92  A    between atoms: _238  and  _239
REMARK   93  A    between atoms: _243  and  _244
REMARK   94  A    between atoms: _249  and  _251
REMARK   95  A    between atoms: _251  and  _252
REMARK   96  A    between atoms: _251  and  _254
REMARK   97  A    between atoms: _254  and  _255
REMARK   98  A    between atoms: _261  and  _263
REMARK   99  A    between atoms: _263  and  _264
REMARK  100  A    between atoms: _263  and  _266
REMARK  101  A    between atoms: _266  and  _267
REMARK  102  A    between atoms: _267  and  _268
REMARK  103  A    between atoms: _270  and  _272
REMARK  104  A    between atoms: _272  and  _273
REMARK  105  A    between atoms: _272  and  _275
REMARK  106  A    between atoms: _275  and  _276
REMARK  107  A    between atoms: _279  and  _281
REMARK  108  A    between atoms: _281  and  _282
REMARK  109  A    between atoms: _285  and  _287
REMARK  110  A    between atoms: _287  and  _288
REMARK  111  A    between atoms: _287  and  _290
REMARK  112  A    between atoms: _290  and  _291
REMARK  113  A    between atoms: _291  and  _292
REMARK  114  A    between atoms: _295  and  _297
REMARK  115  A    between atoms: _297  and  _298
REMARK  116  A    between atoms: _297  and  _300
REMARK  117  A    between atoms: _300  and  _301
REMARK  118  A    between atoms: _307  and  _309
REMARK  119  A    between atoms: _309  and  _310
REMARK  120  A    between atoms: _312  and  _314
REMARK  121  A    between atoms: _314  and  _315
REMARK  122  A    between atoms: _314  and  _317
REMARK  123  A    between atoms: _320  and  _322
REMARK  124  A    between atoms: _322  and  _323
REMARK  125  A    between atoms: _322  and  _325
REMARK  126  A    between atoms: _328  and  _330
REMARK  127  A    between atoms: _330  and  _331
REMARK  128  A    between atoms: _333  and  _335
REMARK  129  A    between atoms: _335  and  _336
REMARK  130  A    between atoms: _335  and  _338
REMARK  131  A    between atoms: _338  and  _339
REMARK  132  A    between atoms: _339  and  _340
REMARK  133  A    between atoms: _342  and  _344
REMARK  134  A    between atoms: _344  and  _345
REMARK  135  A    between atoms: _344  and  _347
REMARK  136  A    between atoms: _347  and  _348
REMARK  137  A    between atoms: _353  and  _354
REMARK  138  A    between atoms: _356  and  _358
REMARK  139  A    between atoms: _358  and  _359
REMARK  140  A    between atoms: _358  and  _361
REMARK  141  A    between atoms: _361  and  _362
REMARK  142  A    between atoms: _365  and  _367
REMARK  143  A    between atoms: _367  and  _368
REMARK  144  A    between atoms: _367  and  _370
REMARK  145  A    between atoms: _373  and  _375
REMARK  146  A    between atoms: _375  and  _376
REMARK  147  A    between atoms: _375  and  _378
REMARK  148  A    between atoms: _378  and  _379
REMARK  149  A    between atoms: _382  and  _384
REMARK  150  A    between atoms: _384  and  _385
REMARK  151  A    between atoms: _384  and  _387
REMARK  152  A    between atoms: _387  and  _388
REMARK  153  A    between atoms: _391  and  _393
REMARK  154  A    between atoms: _393  and  _394
REMARK  155  A    between atoms: _396  and  _398
REMARK  156  A    between atoms: _398  and  _399
REMARK  157  A    between atoms: _402  and  _404
REMARK  158  A    between atoms: _404  and  _405
REMARK  159  A    between atoms: _404  and  _407
REMARK  160  A    between atoms: _407  and  _408
REMARK  161  A    between atoms: _410  and  _412
REMARK  162  A    between atoms: _412  and  _413
REMARK  163  A    between atoms: _412  and  _415
REMARK  164  A    between atoms: _415  and  _416
REMARK  165  A    between atoms: _421  and  _422
REMARK  166  A    between atoms: _424  and  _426
REMARK  167  A    between atoms: _426  and  _427
REMARK  168  A    between atoms: _426  and  _429
REMARK  169  A    between atoms: _429  and  _430
REMARK  170  A    between atoms: _433  and  _435
REMARK  171  A    between atoms: _435  and  _436
REMARK  172  A    between atoms: _435  and  _438
REMARK  173  A    between atoms: _438  and  _439
REMARK  174  A    between atoms: _441  and  _443
REMARK  175  A    between atoms: _443  and  _444
REMARK  176  A    between atoms: _446  and  _448
REMARK  177  A    between atoms: _448  and  _449
REMARK  178  A    between atoms: _448  and  _451
REMARK  179  A    between atoms: _451  and  _452
REMARK  180  A    between atoms: _457  and  _459
REMARK  181  A    between atoms: _459  and  _460
REMARK  182  A    between atoms: _463  and  _465
REMARK  183  A    between atoms: _465  and  _466
REMARK  184  A    between atoms: _465  and  _468
REMARK  185  A    between atoms: _468  and  _469
REMARK  186  A    between atoms: _469  and  _470
REMARK  187  A    between atoms: _472  and  _474
REMARK  188  A    between atoms: _474  and  _475
REMARK  189  A    between atoms: _474  and  _477
REMARK  190  A    between atoms: _477  and  _478
REMARK  191  A    between atoms: _481  and  _483
REMARK  192  A    between atoms: _483  and  _484
REMARK  193  A    between atoms: _483  and  _486
REMARK  194  A    between atoms: _486  and  _487
REMARK  195  A    between atoms: _490  and  _492
REMARK  196  A    between atoms: _492  and  _493
REMARK  197  A    between atoms: _496  and  _498
REMARK  198  A    between atoms: _498  and  _499
REMARK                            x       y       z     vdW  Elec       q    Type
REMARK                         _______ _______ _______ _____ _____    ______ ____
ROOT
ATOM      1  O   HOH     1      33.625  62.338  50.641  0.00  0.00    +0.000 OA
ENDROOT
TORSDOF 0
REMARK  Name = ../refined-set-2016/4s1g/4s1g_pocket.pdb
REMARK  198 active torsions:
REMARK  status: ('A' for Active; 'I' for Inactive)
REMARK    1  A    between atoms: _1  and  _3
REMARK    2  A    between atoms: _3  and  _4
REMARK    3  A    between atoms: _3  and  _6
REMARK    4  A    between atoms: _6  and  _7
REMARK    5  A    between atoms: _12  and  _13
REMARK    6  A    between atoms: _15  and  _17
REMARK    7  A    between atoms: _17  and  _18
REMARK    8  A    between atoms: _17  and  _20
REMARK    9  A    between atoms: _20  and  _21
REMARK   10  A    between atoms: _24  and  _26
REMARK   11  A    between atoms: _26  and  _27
REMARK   12  A    between atoms: _26  and  _29
REMARK   13  A    between atoms: _29  and  _30
REMARK   14  A    between atoms: _30  and  _31
REMARK   15  A    between atoms: _36  and  _38
REMARK   16  A    between atoms: _38  and  _39
REMARK   17  A    between atoms: _38  and  _41
REMARK   18  A    between atoms: _41  and  _42
REMARK   19  A    between atoms: _47  and  _48
REMARK   20  A    between atoms: _50  and  _52
REMARK   21  A    between atoms: _52  and  _53
REMARK   22  A    between atoms: _52  and  _55
REMARK   23  A    between atoms: _55  and  _56
REMARK   24  A    between atoms: _61  and  _62
REMARK   25  A    between atoms: _64  and  _66
REMARK   26  A    between atoms: _66  and  _67
REMARK   27  A    between atoms: _66  and  _69
REMARK   28  A    between atoms: _72  and  _74
REMARK   29  A    between atoms: _74  and  _75
REMARK   30  A    between atoms: _74  and  _77
REMARK   31  A    between atoms: _77  and  _78
REMARK   32  A    between atoms: _84  and  _86
REMARK   33  A    between atoms: _86  and  _87
REMARK   34  A    between atoms: _86  and  _89
REMARK   35  A    between atoms: _89  and  _90
REMARK   36  A    between atoms: _93  and  _95
REMARK   37  A    between atoms: _95  and  _96
REMARK   38  A    between atoms: _95  and  _98
REMARK   39  A    between atoms: _98  and  _99
REMARK   40  A    between atoms: _102  and  _104
REMARK   41  A    between atoms: _104  and  _105
REMARK   42  A    between atoms: _107  and  _109
REMARK   43  A    between atoms: _109  and  _110
REMARK   44  A    between atoms: _109  and  _112
REMARK   45  A    between atoms: _112  and  _113
REMARK   46  A    between atoms: _115  and  _117
REMARK   47  A    between atoms: _117  and  _118
REMARK   48  A    between atoms: _117  and  _120
REMARK   49  A    between atoms: _120  and  _121
REMARK   50  A    between atoms: _123  and  _125
REMARK   51  A    between atoms: _125  and  _126
REMARK   52  A    between atoms: _125  and  _128
REMARK   53  A    between atoms: _128  and  _129
REMARK   54  A    between atoms: _134  and  _136
REMARK   55  A    between atoms: _136  and  _137
REMARK   56  A    between atoms: _136  and  _139
REMARK   57  A    between atoms: _139  and  _140
REMARK   58  A    between atoms: _150  and  _152
REMARK   59  A    between atoms: _152  and  _153
REMARK   60  A    between atoms: _152  and  _155
REMARK   61  A    between atoms: _155  and  _156
REMARK   62  A    between atoms: _159  and  _161
REMARK   63  A    between atoms: _161  and  _162
REMARK   64  A    between atoms: _161  and  _164
REMARK   65  A    between atoms: _164  and  _165
REMARK   66  A    between atoms: _165  and  _166
REMARK   67  A    between atoms: _166  and  _167
REMARK   68  A    between atoms: _176  and  _178
REMARK   69  A    between atoms: _178  and  _179
REMARK   70  A    between atoms: _178  and  _181
REMARK   71  A    between atoms: _181  and  _182
REMARK   72  A    between atoms: _187  and  _188
REMARK   73  A    between atoms: _190  and  _192
REMARK   74  A    between atoms: _192  and  _193
REMARK   75  A    between atoms: _192  and  _195
REMARK   76  A    between atoms: _195  and  _196
REMARK   77  A    between atoms: _198  and  _200
REMARK   78  A    between atoms: _200  and  _201
REMARK   79  A    between atoms: _200  and  _203
REMARK   80  A    between atoms: _203  and  _204
REMARK   81  A    between atoms: _207  and  _209
REMARK   82  A    between atoms: _209  and  _210
REMARK   83  A    between atoms: _212  and  _214
REMARK   84  A    between atoms: _214  and  _215
REMARK   85  A    between atoms: _214  and  _217
REMARK   86  A    between atoms: _221  and  _222
REMARK   87  A    between atoms: _227  and  _229
REMARK   88  A    between atoms: _229  and  _230
REMARK   89  A    between atoms: _233  and  _235
REMARK   90  A    between atoms: _235  and  _236
REMARK   91  A    between atoms: _235  and  _238
REMARK   92  A    between atoms: _238  and  _239
REMARK   93  A    between atoms: _243  and  _244
REMARK   94  A    between atoms: _249  and  _251
REMARK   95  A    between atoms: _251  and  _252
REMARK   96  A    between atoms: _251  and  _254
REMARK   97  A    between atoms: _254  and  _255
REMARK   98  A    between atoms: _261  and  _263
REMARK   99  A    between atoms: _263  and  _264
REMARK  100  A    between atoms: _263  and  _266
REMARK  101  A    between atoms: _266  and  _267
REMARK  102  A    between atoms: _267  and  _268
REMARK  103  A    between atoms: _270  and  _272
REMARK  104  A    between atoms: _272  and  _273
REMARK  105  A    between atoms: _272  and  _275
REMARK  106  A    between atoms: _275  and  _276
REMARK  107  A    between atoms: _279  and  _281
REMARK  108  A    between atoms: _281  and  _282
REMARK  109  A    between atoms: _285  and  _287
REMARK  110  A    between atoms: _287  and  _288
REMARK  111  A    between atoms: _287  and  _290
REMARK  112  A    between atoms: _290  and  _291
REMARK  113  A    between atoms: _291  and  _292
REMARK  114  A    between atoms: _295  and  _297
REMARK  115  A    between atoms: _297  and  _298
REMARK  116  A    between atoms: _297  and  _300
REMARK  117  A    between atoms: _300  and  _301
REMARK  118  A    between atoms: _307  and  _309
REMARK  119  A    between atoms: _309  and  _310
REMARK  120  A    between atoms: _312  and  _314
REMARK  121  A    between atoms: _314  and  _315
REMARK  122  A    between atoms: _314  and  _317
REMARK  123  A    between atoms: _320  and  _322
REMARK  124  A    between atoms: _322  and  _323
REMARK  125  A    between atoms: _322  and  _325
REMARK  126  A    between atoms: _328  and  _330
REMARK  127  A    between atoms: _330  and  _331
REMARK  128  A    between atoms: _333  and  _335
REMARK  129  A    between atoms: _335  and  _336
REMARK  130  A    between atoms: _335  and  _338
REMARK  131  A    between atoms: _338  and  _339
REMARK  132  A    between atoms: _339  and  _340
REMARK  133  A    between atoms: _342  and  _344
REMARK  134  A    between atoms: _344  and  _345
REMARK  135  A    between atoms: _344  and  _347
REMARK  136  A    between atoms: _347  and  _348
REMARK  137  A    between atoms: _353  and  _354
REMARK  138  A    between atoms: _356  and  _358
REMARK  139  A    between atoms: _358  and  _359
REMARK  140  A    between atoms: _358  and  _361
REMARK  141  A    between atoms: _361  and  _362
REMARK  142  A    between atoms: _365  and  _367
REMARK  143  A    between atoms: _367  and  _368
REMARK  144  A    between atoms: _367  and  _370
REMARK  145  A    between atoms: _373  and  _375
REMARK  146  A    between atoms: _375  and  _376
REMARK  147  A    between atoms: _375  and  _378
REMARK  148  A    between atoms: _378  and  _379
REMARK  149  A    between atoms: _382  and  _384
REMARK  150  A    between atoms: _384  and  _385
REMARK  151  A    between atoms: _384  and  _387
REMARK  152  A    between atoms: _387  and  _388
REMARK  153  A    between atoms: _391  and  _393
REMARK  154  A    between atoms: _393  and  _394
REMARK  155  A    between atoms: _396  and  _398
REMARK  156  A    between atoms: _398  and  _399
REMARK  157  A    between atoms: _402  and  _404
REMARK  158  A    between atoms: _404  and  _405
REMARK  159  A    between atoms: _404  and  _407
REMARK  160  A    between atoms: _407  and  _408
REMARK  161  A    between atoms: _410  and  _412
REMARK  162  A    between atoms: _412  and  _413
REMARK  163  A    between atoms: _412  and  _415
REMARK  164  A    between atoms: _415  and  _416
REMARK  165  A    between atoms: _421  and  _422
REMARK  166  A    between atoms: _424  and  _426
REMARK  167  A    between atoms: _426  and  _427
REMARK  168  A    between atoms: _426  and  _429
REMARK  169  A    between atoms: _429  and  _430
REMARK  170  A    between atoms: _433  and  _435
REMARK  171  A    between atoms: _435  and  _436
REMARK  172  A    between atoms: _435  and  _438
REMARK  173  A    between atoms: _438  and  _439
REMARK  174  A    between atoms: _441  and  _443
REMARK  175  A    between atoms: _443  and  _444
REMARK  176  A    between atoms: _446  and  _448
REMARK  177  A    between atoms: _448  and  _449
REMARK  178  A    between atoms: _448  and  _451
REMARK  179  A    between atoms: _451  and  _452
REMARK  180  A    between atoms: _457  and  _459
REMARK  181  A    between atoms: _459  and  _460
REMARK  182  A    between atoms: _463  and  _465
REMARK  183  A    between atoms: _465  and  _466
REMARK  184  A    between atoms: _465  and  _468
REMARK  185  A    between atoms: _468  and  _469
REMARK  186  A    between atoms: _469  and  _470
REMARK  187  A    between atoms: _472  and  _474
REMARK  188  A    between atoms: _474  and  _475
REMARK  189  A    between atoms: _474  and  _477
REMARK  190  A    between atoms: _477  and  _478
REMARK  191  A    between atoms: _481  and  _483
REMARK  192  A    between atoms: _483  and  _484
REMARK  193  A    between atoms: _483  and  _486
REMARK  194  A    between atoms: _486  and  _487
REMARK  195  A    between atoms: _490  and  _492
REMARK  196  A    between atoms: _492  and  _493
REMARK  197  A    between atoms: _496  and  _498
REMARK  198  A    between atoms: _498  and  _499
REMARK                            x       y       z     vdW  Elec       q    Type
REMARK                         _______ _______ _______ _____ _____    ______ ____
ROOT
ATOM      1  O   HOH     1      25.701  58.087  38.576  0.00  0.00    +0.000 OA
ENDROOT
TORSDOF 0
REMARK  Name = ../refined-set-2016/4s1g/4s1g_pocket.pdb
REMARK  198 active torsions:
REMARK  status: ('A' for Active; 'I' for Inactive)
REMARK    1  A    between atoms: _1  and  _3
REMARK    2  A    between atoms: _3  and  _4
REMARK    3  A    between atoms: _3  and  _6
REMARK    4  A    between atoms: _6  and  _7
REMARK    5  A    between atoms: _12  and  _13
REMARK    6  A    between atoms: _15  and  _17
REMARK    7  A    between atoms: _17  and  _18
REMARK    8  A    between atoms: _17  and  _20
REMARK    9  A    between atoms: _20  and  _21
REMARK   10  A    between atoms: _24  and  _26
REMARK   11  A    between atoms: _26  and  _27
REMARK   12  A    between atoms: _26  and  _29
REMARK   13  A    between atoms: _29  and  _30
REMARK   14  A    between atoms: _30  and  _31
REMARK   15  A    between atoms: _36  and  _38
REMARK   16  A    between atoms: _38  and  _39
REMARK   17  A    between atoms: _38  and  _41
REMARK   18  A    between atoms: _41  and  _42
REMARK   19  A    between atoms: _47  and  _48
REMARK   20  A    between atoms: _50  and  _52
REMARK   21  A    between atoms: _52  and  _53
REMARK   22  A    between atoms: _52  and  _55
REMARK   23  A    between atoms: _55  and  _56
REMARK   24  A    between atoms: _61  and  _62
REMARK   25  A    between atoms: _64  and  _66
REMARK   26  A    between atoms: _66  and  _67
REMARK   27  A    between atoms: _66  and  _69
REMARK   28  A    between atoms: _72  and  _74
REMARK   29  A    between atoms: _74  and  _75
REMARK   30  A    between atoms: _74  and  _77
REMARK   31  A    between atoms: _77  and  _78
REMARK   32  A    between atoms: _84  and  _86
REMARK   33  A    between atoms: _86  and  _87
REMARK   34  A    between atoms: _86  and  _89
REMARK   35  A    between atoms: _89  and  _90
REMARK   36  A    between atoms: _93  and  _95
REMARK   37  A    between atoms: _95  and  _96
REMARK   38  A    between atoms: _95  and  _98
REMARK   39  A    between atoms: _98  and  _99
REMARK   40  A    between atoms: _102  and  _104
REMARK   41  A    between atoms: _104  and  _105
REMARK   42  A    between atoms: _107  and  _109
REMARK   43  A    between atoms: _109  and  _110
REMARK   44  A    between atoms: _109  and  _112
REMARK   45  A    between atoms: _112  and  _113
REMARK   46  A    between atoms: _115  and  _117
REMARK   47  A    between atoms: _117  and  _118
REMARK   48  A    between atoms: _117  and  _120
REMARK   49  A    between atoms: _120  and  _121
REMARK   50  A    between atoms: _123  and  _125
REMARK   51  A    between atoms: _125  and  _126
REMARK   52  A    between atoms: _125  and  _128
REMARK   53  A    between atoms: _128  and  _129
REMARK   54  A    between atoms: _134  and  _136
REMARK   55  A    between atoms: _136  and  _137
REMARK   56  A    between atoms: _136  and  _139
REMARK   57  A    between atoms: _139  and  _140
REMARK   58  A    between atoms: _150  and  _152
REMARK   59  A    between atoms: _152  and  _153
REMARK   60  A    between atoms: _152  and  _155
REMARK   61  A    between atoms: _155  and  _156
REMARK   62  A    between atoms: _159  and  _161
REMARK   63  A    between atoms: _161  and  _162
REMARK   64  A    between atoms: _161  and  _164
REMARK   65  A    between atoms: _164  and  _165
REMARK   66  A    between atoms: _165  and  _166
REMARK   67  A    between atoms: _166  and  _167
REMARK   68  A    between atoms: _176  and  _178
REMARK   69  A    between atoms: _178  and  _179
REMARK   70  A    between atoms: _178  and  _181
REMARK   71  A    between atoms: _181  and  _182
REMARK   72  A    between atoms: _187  and  _188
REMARK   73  A    between atoms: _190  and  _192
REMARK   74  A    between atoms: _192  and  _193
REMARK   75  A    between atoms: _192  and  _195
REMARK   76  A    between atoms: _195  and  _196
REMARK   77  A    between atoms: _198  and  _200
REMARK   78  A    between atoms: _200  and  _201
REMARK   79  A    between atoms: _200  and  _203
REMARK   80  A    between atoms: _203  and  _204
REMARK   81  A    between atoms: _207  and  _209
REMARK   82  A    between atoms: _209  and  _210
REMARK   83  A    between atoms: _212  and  _214
REMARK   84  A    between atoms: _214  and  _215
REMARK   85  A    between atoms: _214  and  _217
REMARK   86  A    between atoms: _221  and  _222
REMARK   87  A    between atoms: _227  and  _229
REMARK   88  A    between atoms: _229  and  _230
REMARK   89  A    between atoms: _233  and  _235
REMARK   90  A    between atoms: _235  and  _236
REMARK   91  A    between atoms: _235  and  _238
REMARK   92  A    between atoms: _238  and  _239
REMARK   93  A    between atoms: _243  and  _244
REMARK   94  A    between atoms: _249  and  _251
REMARK   95  A    between atoms: _251  and  _252
REMARK   96  A    between atoms: _251  and  _254
REMARK   97  A    between atoms: _254  and  _255
REMARK   98  A    between atoms: _261  and  _263
REMARK   99  A    between atoms: _263  and  _264
REMARK  100  A    between atoms: _263  and  _266
REMARK  101  A    between atoms: _266  and  _267
REMARK  102  A    between atoms: _267  and  _268
REMARK  103  A    between atoms: _270  and  _272
REMARK  104  A    between atoms: _272  and  _273
REMARK  105  A    between atoms: _272  and  _275
REMARK  106  A    between atoms: _275  and  _276
REMARK  107  A    between atoms: _279  and  _281
REMARK  108  A    between atoms: _281  and  _282
REMARK  109  A    between atoms: _285  and  _287
REMARK  110  A    between atoms: _287  and  _288
REMARK  111  A    between atoms: _287  and  _290
REMARK  112  A    between atoms: _290  and  _291
REMARK  113  A    between atoms: _291  and  _292
REMARK  114  A    between atoms: _295  and  _297
REMARK  115  A    between atoms: _297  and  _298
REMARK  116  A    between atoms: _297  and  _300
REMARK  117  A    between atoms: _300  and  _301
REMARK  118  A    between atoms: _307  and  _309
REMARK  119  A    between atoms: _309  and  _310
REMARK  120  A    between atoms: _312  and  _314
REMARK  121  A    between atoms: _314  and  _315
REMARK  122  A    between atoms: _314  and  _317
REMARK  123  A    between atoms: _320  and  _322
REMARK  124  A    between atoms: _322  and  _323
REMARK  125  A    between atoms: _322  and  _325
REMARK  126  A    between atoms: _328  and  _330
REMARK  127  A    between atoms: _330  and  _331
REMARK  128  A    between atoms: _333  and  _335
REMARK  129  A    between atoms: _335  and  _336
REMARK  130  A    between atoms: _335  and  _338
REMARK  131  A    between atoms: _338  and  _339
REMARK  132  A    between atoms: _339  and  _340
REMARK  133  A    between atoms: _342  and  _344
REMARK  134  A    between atoms: _344  and  _345
REMARK  135  A    between atoms: _344  and  _347
REMARK  136  A    between atoms: _347  and  _348
REMARK  137  A    between atoms: _353  and  _354
REMARK  138  A    between atoms: _356  and  _358
REMARK  139  A    between atoms: _358  and  _359
REMARK  140  A    between atoms: _358  and  _361
REMARK  141  A    between atoms: _361  and  _362
REMARK  142  A    between atoms: _365  and  _367
REMARK  143  A    between atoms: _367  and  _368
REMARK  144  A    between atoms: _367  and  _370
REMARK  145  A    between atoms: _373  and  _375
REMARK  146  A    between atoms: _375  and  _376
REMARK  147  A    between atoms: _375  and  _378
REMARK  148  A    between atoms: _378  and  _379
REMARK  149  A    between atoms: _382  and  _384
REMARK  150  A    between atoms: _384  and  _385
REMARK  151  A    between atoms: _384  and  _387
REMARK  152  A    between atoms: _387  and  _388
REMARK  153  A    between atoms: _391  and  _393
REMARK  154  A    between atoms: _393  and  _394
REMARK  155  A    between atoms: _396  and  _398
REMARK  156  A    between atoms: _398  and  _399
REMARK  157  A    between atoms: _402  and  _404
REMARK  158  A    between atoms: _404  and  _405
REMARK  159  A    between atoms: _404  and  _407
REMARK  160  A    between atoms: _407  and  _408
REMARK  161  A    between atoms: _410  and  _412
REMARK  162  A    between atoms: _412  and  _413
REMARK  163  A    between atoms: _412  and  _415
REMARK  164  A    between atoms: _415  and  _416
REMARK  165  A    between atoms: _421  and  _422
REMARK  166  A    between atoms: _424  and  _426
REMARK  167  A    between atoms: _426  and  _427
REMARK  168  A    between atoms: _426  and  _429
REMARK  169  A    between atoms: _429  and  _430
REMARK  170  A    between atoms: _433  and  _435
REMARK  171  A    between atoms: _435  and  _436
REMARK  172  A    between atoms: _435  and  _438
REMARK  173  A    between atoms: _438  and  _439
REMARK  174  A    between atoms: _441  and  _443
REMARK  175  A    between atoms: _443  and  _444
REMARK  176  A    between atoms: _446  and  _448
REMARK  177  A    between atoms: _448  and  _449
REMARK  178  A    between atoms: _448  and  _451
REMARK  179  A    between atoms: _451  and  _452
REMARK  180  A    between atoms: _457  and  _459
REMARK  181  A    between atoms: _459  and  _460
REMARK  182  A    between atoms: _463  and  _465
REMARK  183  A    between atoms: _465  and  _466
REMARK  184  A    between atoms: _465  and  _468
REMARK  185  A    between atoms: _468  and  _469
REMARK  186  A    between atoms: _469  and  _470
REMARK  187  A    between atoms: _472  and  _474
REMARK  188  A    between atoms: _474  and  _475
REMARK  189  A    between atoms: _474  and  _477
REMARK  190  A    between atoms: _477  and  _478
REMARK  191  A    between atoms: _481  and  _483
REMARK  192  A    between atoms: _483  and  _484
REMARK  193  A    between atoms: _483  and  _486
REMARK  194  A    between atoms: _486  and  _487
REMARK  195  A    between atoms: _490  and  _492
REMARK  196  A    between atoms: _492  and  _493
REMARK  197  A    between atoms: _496  and  _498
REMARK  198  A    between atoms: _498  and  _499
REMARK                            x       y       z     vdW  Elec       q    Type
REMARK                         _______ _______ _______ _____ _____    ______ ____
ROOT
ATOM      1  O   HOH     1      32.879  59.905  38.456  0.00  0.00    +0.000 OA
ENDROOT
TORSDOF 0
REMARK  Name = ../refined-set-2016/4s1g/4s1g_pocket.pdb
REMARK  198 active torsions:
REMARK  status: ('A' for Active; 'I' for Inactive)
REMARK    1  A    between atoms: _1  and  _3
REMARK    2  A    between atoms: _3  and  _4
REMARK    3  A    between atoms: _3  and  _6
REMARK    4  A    between atoms: _6  and  _7
REMARK    5  A    between atoms: _12  and  _13
REMARK    6  A    between atoms: _15  and  _17
REMARK    7  A    between atoms: _17  and  _18
REMARK    8  A    between atoms: _17  and  _20
REMARK    9  A    between atoms: _20  and  _21
REMARK   10  A    between atoms: _24  and  _26
REMARK   11  A    between atoms: _26  and  _27
REMARK   12  A    between atoms: _26  and  _29
REMARK   13  A    between atoms: _29  and  _30
REMARK   14  A    between atoms: _30  and  _31
REMARK   15  A    between atoms: _36  and  _38
REMARK   16  A    between atoms: _38  and  _39
REMARK   17  A    between atoms: _38  and  _41
REMARK   18  A    between atoms: _41  and  _42
REMARK   19  A    between atoms: _47  and  _48
REMARK   20  A    between atoms: _50  and  _52
REMARK   21  A    between atoms: _52  and  _53
REMARK   22  A    between atoms: _52  and  _55
REMARK   23  A    between atoms: _55  and  _56
REMARK   24  A    between atoms: _61  and  _62
REMARK   25  A    between atoms: _64  and  _66
REMARK   26  A    between atoms: _66  and  _67
REMARK   27  A    between atoms: _66  and  _69
REMARK   28  A    between atoms: _72  and  _74
REMARK   29  A    between atoms: _74  and  _75
REMARK   30  A    between atoms: _74  and  _77
REMARK   31  A    between atoms: _77  and  _78
REMARK   32  A    between atoms: _84  and  _86
REMARK   33  A    between atoms: _86  and  _87
REMARK   34  A    between atoms: _86  and  _89
REMARK   35  A    between atoms: _89  and  _90
REMARK   36  A    between atoms: _93  and  _95
REMARK   37  A    between atoms: _95  and  _96
REMARK   38  A    between atoms: _95  and  _98
REMARK   39  A    between atoms: _98  and  _99
REMARK   40  A    between atoms: _102  and  _104
REMARK   41  A    between atoms: _104  and  _105
REMARK   42  A    between atoms: _107  and  _109
REMARK   43  A    between atoms: _109  and  _110
REMARK   44  A    between atoms: _109  and  _112
REMARK   45  A    between atoms: _112  and  _113
REMARK   46  A    between atoms: _115  and  _117
REMARK   47  A    between atoms: _117  and  _118
REMARK   48  A    between atoms: _117  and  _120
REMARK   49  A    between atoms: _120  and  _121
REMARK   50  A    between atoms: _123  and  _125
REMARK   51  A    between atoms: _125  and  _126
REMARK   52  A    between atoms: _125  and  _128
REMARK   53  A    between atoms: _128  and  _129
REMARK   54  A    between atoms: _134  and  _136
REMARK   55  A    between atoms: _136  and  _137
REMARK   56  A    between atoms: _136  and  _139
REMARK   57  A    between atoms: _139  and  _140
REMARK   58  A    between atoms: _150  and  _152
REMARK   59  A    between atoms: _152  and  _153
REMARK   60  A    between atoms: _152  and  _155
REMARK   61  A    between atoms: _155  and  _156
REMARK   62  A    between atoms: _159  and  _161
REMARK   63  A    between atoms: _161  and  _162
REMARK   64  A    between atoms: _161  and  _164
REMARK   65  A    between atoms: _164  and  _165
REMARK   66  A    between atoms: _165  and  _166
REMARK   67  A    between atoms: _166  and  _167
REMARK   68  A    between atoms: _176  and  _178
REMARK   69  A    between atoms: _178  and  _179
REMARK   70  A    between atoms: _178  and  _181
REMARK   71  A    between atoms: _181  and  _182
REMARK   72  A    between atoms: _187  and  _188
REMARK   73  A    between atoms: _190  and  _192
REMARK   74  A    between atoms: _192  and  _193
REMARK   75  A    between atoms: _192  and  _195
REMARK   76  A    between atoms: _195  and  _196
REMARK   77  A    between atoms: _198  and  _200
REMARK   78  A    between atoms: _200  and  _201
REMARK   79  A    between atoms: _200  and  _203
REMARK   80  A    between atoms: _203  and  _204
REMARK   81  A    between atoms: _207  and  _209
REMARK   82  A    between atoms: _209  and  _210
REMARK   83  A    between atoms: _212  and  _214
REMARK   84  A    between atoms: _214  and  _215
REMARK   85  A    between atoms: _214  and  _217
REMARK   86  A    between atoms: _221  and  _222
REMARK   87  A    between atoms: _227  and  _229
REMARK   88  A    between atoms: _229  and  _230
REMARK   89  A    between atoms: _233  and  _235
REMARK   90  A    between atoms: _235  and  _236
REMARK   91  A    between atoms: _235  and  _238
REMARK   92  A    between atoms: _238  and  _239
REMARK   93  A    between atoms: _243  and  _244
REMARK   94  A    between atoms: _249  and  _251
REMARK   95  A    between atoms: _251  and  _252
REMARK   96  A    between atoms: _251  and  _254
REMARK   97  A    between atoms: _254  and  _255
REMARK   98  A    between atoms: _261  and  _263
REMARK   99  A    between atoms: _263  and  _264
REMARK  100  A    between atoms: _263  and  _266
REMARK  101  A    between atoms: _266  and  _267
REMARK  102  A    between atoms: _267  and  _268
REMARK  103  A    between atoms: _270  and  _272
REMARK  104  A    between atoms: _272  and  _273
REMARK  105  A    between atoms: _272  and  _275
REMARK  106  A    between atoms: _275  and  _276
REMARK  107  A    between atoms: _279  and  _281
REMARK  108  A    between atoms: _281  and  _282
REMARK  109  A    between atoms: _285  and  _287
REMARK  110  A    between atoms: _287  and  _288
REMARK  111  A    between atoms: _287  and  _290
REMARK  112  A    between atoms: _290  and  _291
REMARK  113  A    between atoms: _291  and  _292
REMARK  114  A    between atoms: _295  and  _297
REMARK  115  A    between atoms: _297  and  _298
REMARK  116  A    between atoms: _297  and  _300
REMARK  117  A    between atoms: _300  and  _301
REMARK  118  A    between atoms: _307  and  _309
REMARK  119  A    between atoms: _309  and  _310
REMARK  120  A    between atoms: _312  and  _314
REMARK  121  A    between atoms: _314  and  _315
REMARK  122  A    between atoms: _314  and  _317
REMARK  123  A    between atoms: _320  and  _322
REMARK  124  A    between atoms: _322  and  _323
REMARK  125  A    between atoms: _322  and  _325
REMARK  126  A    between atoms: _328  and  _330
REMARK  127  A    between atoms: _330  and  _331
REMARK  128  A    between atoms: _333  and  _335
REMARK  129  A    between atoms: _335  and  _336
REMARK  130  A    between atoms: _335  and  _338
REMARK  131  A    between atoms: _338  and  _339
REMARK  132  A    between atoms: _339  and  _340
REMARK  133  A    between atoms: _342  and  _344
REMARK  134  A    between atoms: _344  and  _345
REMARK  135  A    between atoms: _344  and  _347
REMARK  136  A    between atoms: _347  and  _348
REMARK  137  A    between atoms: _353  and  _354
REMARK  138  A    between atoms: _356  and  _358
REMARK  139  A    between atoms: _358  and  _359
REMARK  140  A    between atoms: _358  and  _361
REMARK  141  A    between atoms: _361  and  _362
REMARK  142  A    between atoms: _365  and  _367
REMARK  143  A    between atoms: _367  and  _368
REMARK  144  A    between atoms: _367  and  _370
REMARK  145  A    between atoms: _373  and  _375
REMARK  146  A    between atoms: _375  and  _376
REMARK  147  A    between atoms: _375  and  _378
REMARK  148  A    between atoms: _378  and  _379
REMARK  149  A    between atoms: _382  and  _384
REMARK  150  A    between atoms: _384  and  _385
REMARK  151  A    between atoms: _384  and  _387
REMARK  152  A    between atoms: _387  and  _388
REMARK  153  A    between atoms: _391  and  _393
REMARK  154  A    between atoms: _393  and  _394
REMARK  155  A    between atoms: _396  and  _398
REMARK  156  A    between atoms: _398  and  _399
REMARK  157  A    between atoms: _402  and  _404
REMARK  158  A    between atoms: _404  and  _405
REMARK  159  A    between atoms: _404  and  _407
REMARK  160  A    between atoms: _407  and  _408
REMARK  161  A    between atoms: _410  and  _412
REMARK  162  A    between atoms: _412  and  _413
REMARK  163  A    between atoms: _412  and  _415
REMARK  164  A    between atoms: _415  and  _416
REMARK  165  A    between atoms: _421  and  _422
REMARK  166  A    between atoms: _424  and  _426
REMARK  167  A    between atoms: _426  and  _427
REMARK  168  A    between atoms: _426  and  _429
REMARK  169  A    between atoms: _429  and  _430
REMARK  170  A    between atoms: _433  and  _435
REMARK  171  A    between atoms: _435  and  _436
REMARK  172  A    between atoms: _435  and  _438
REMARK  173  A    between atoms: _438  and  _439
REMARK  174  A    between atoms: _441  and  _443
REMARK  175  A    between atoms: _443  and  _444
REMARK  176  A    between atoms: _446  and  _448
REMARK  177  A    between atoms: _448  and  _449
REMARK  178  A    between atoms: _448  and  _451
REMARK  179  A    between atoms: _451  and  _452
REMARK  180  A    between atoms: _457  and  _459
REMARK  181  A    between atoms: _459  and  _460
REMARK  182  A    between atoms: _463  and  _465
REMARK  183  A    between atoms: _465  and  _466
REMARK  184  A    between atoms: _465  and  _468
REMARK  185  A    between atoms: _468  and  _469
REMARK  186  A    between atoms: _469  and  _470
REMARK  187  A    between atoms: _472  and  _474
REMARK  188  A    between atoms: _474  and  _475
REMARK  189  A    between atoms: _474  and  _477
REMARK  190  A    between atoms: _477  and  _478
REMARK  191  A    between atoms: _481  and  _483
REMARK  192  A    between atoms: _483  and  _484
REMARK  193  A    between atoms: _483  and  _486
REMARK  194  A    between atoms: _486  and  _487
REMARK  195  A    between atoms: _490  and  _492
REMARK  196  A    between atoms: _492  and  _493
REMARK  197  A    between atoms: _496  and  _498
REMARK  198  A    between atoms: _498  and  _499
REMARK                            x       y       z     vdW  Elec       q    Type
REMARK                         _______ _______ _______ _____ _____    ______ ____
ROOT
ATOM      1  O   HOH     1      30.361  63.755  37.661  0.00  0.00    +0.000 OA
ENDROOT
TORSDOF 0
REMARK  Name = ../refined-set-2016/4s1g/4s1g_pocket.pdb
REMARK  198 active torsions:
REMARK  status: ('A' for Active; 'I' for Inactive)
REMARK    1  A    between atoms: _1  and  _3
REMARK    2  A    between atoms: _3  and  _4
REMARK    3  A    between atoms: _3  and  _6
REMARK    4  A    between atoms: _6  and  _7
REMARK    5  A    between atoms: _12  and  _13
REMARK    6  A    between atoms: _15  and  _17
REMARK    7  A    between atoms: _17  and  _18
REMARK    8  A    between atoms: _17  and  _20
REMARK    9  A    between atoms: _20  and  _21
REMARK   10  A    between atoms: _24  and  _26
REMARK   11  A    between atoms: _26  and  _27
REMARK   12  A    between atoms: _26  and  _29
REMARK   13  A    between atoms: _29  and  _30
REMARK   14  A    between atoms: _30  and  _31
REMARK   15  A    between atoms: _36  and  _38
REMARK   16  A    between atoms: _38  and  _39
REMARK   17  A    between atoms: _38  and  _41
REMARK   18  A    between atoms: _41  and  _42
REMARK   19  A    between atoms: _47  and  _48
REMARK   20  A    between atoms: _50  and  _52
REMARK   21  A    between atoms: _52  and  _53
REMARK   22  A    between atoms: _52  and  _55
REMARK   23  A    between atoms: _55  and  _56
REMARK   24  A    between atoms: _61  and  _62
REMARK   25  A    between atoms: _64  and  _66
REMARK   26  A    between atoms: _66  and  _67
REMARK   27  A    between atoms: _66  and  _69
REMARK   28  A    between atoms: _72  and  _74
REMARK   29  A    between atoms: _74  and  _75
REMARK   30  A    between atoms: _74  and  _77
REMARK   31  A    between atoms: _77  and  _78
REMARK   32  A    between atoms: _84  and  _86
REMARK   33  A    between atoms: _86  and  _87
REMARK   34  A    between atoms: _86  and  _89
REMARK   35  A    between atoms: _89  and  _90
REMARK   36  A    between atoms: _93  and  _95
REMARK   37  A    between atoms: _95  and  _96
REMARK   38  A    between atoms: _95  and  _98
REMARK   39  A    between atoms: _98  and  _99
REMARK   40  A    between atoms: _102  and  _104
REMARK   41  A    between atoms: _104  and  _105
REMARK   42  A    between atoms: _107  and  _109
REMARK   43  A    between atoms: _109  and  _110
REMARK   44  A    between atoms: _109  and  _112
REMARK   45  A    between atoms: _112  and  _113
REMARK   46  A    between atoms: _115  and  _117
REMARK   47  A    between atoms: _117  and  _118
REMARK   48  A    between atoms: _117  and  _120
REMARK   49  A    between atoms: _120  and  _121
REMARK   50  A    between atoms: _123  and  _125
REMARK   51  A    between atoms: _125  and  _126
REMARK   52  A    between atoms: _125  and  _128
REMARK   53  A    between atoms: _128  and  _129
REMARK   54  A    between atoms: _134  and  _136
REMARK   55  A    between atoms: _136  and  _137
REMARK   56  A    between atoms: _136  and  _139
REMARK   57  A    between atoms: _139  and  _140
REMARK   58  A    between atoms: _150  and  _152
REMARK   59  A    between atoms: _152  and  _153
REMARK   60  A    between atoms: _152  and  _155
REMARK   61  A    between atoms: _155  and  _156
REMARK   62  A    between atoms: _159  and  _161
REMARK   63  A    between atoms: _161  and  _162
REMARK   64  A    between atoms: _161  and  _164
REMARK   65  A    between atoms: _164  and  _165
REMARK   66  A    between atoms: _165  and  _166
REMARK   67  A    between atoms: _166  and  _167
REMARK   68  A    between atoms: _176  and  _178
REMARK   69  A    between atoms: _178  and  _179
REMARK   70  A    between atoms: _178  and  _181
REMARK   71  A    between atoms: _181  and  _182
REMARK   72  A    between atoms: _187  and  _188
REMARK   73  A    between atoms: _190  and  _192
REMARK   74  A    between atoms: _192  and  _193
REMARK   75  A    between atoms: _192  and  _195
REMARK   76  A    between atoms: _195  and  _196
REMARK   77  A    between atoms: _198  and  _200
REMARK   78  A    between atoms: _200  and  _201
REMARK   79  A    between atoms: _200  and  _203
REMARK   80  A    between atoms: _203  and  _204
REMARK   81  A    between atoms: _207  and  _209
REMARK   82  A    between atoms: _209  and  _210
REMARK   83  A    between atoms: _212  and  _214
REMARK   84  A    between atoms: _214  and  _215
REMARK   85  A    between atoms: _214  and  _217
REMARK   86  A    between atoms: _221  and  _222
REMARK   87  A    between atoms: _227  and  _229
REMARK   88  A    between atoms: _229  and  _230
REMARK   89  A    between atoms: _233  and  _235
REMARK   90  A    between atoms: _235  and  _236
REMARK   91  A    between atoms: _235  and  _238
REMARK   92  A    between atoms: _238  and  _239
REMARK   93  A    between atoms: _243  and  _244
REMARK   94  A    between atoms: _249  and  _251
REMARK   95  A    between atoms: _251  and  _252
REMARK   96  A    between atoms: _251  and  _254
REMARK   97  A    between atoms: _254  and  _255
REMARK   98  A    between atoms: _261  and  _263
REMARK   99  A    between atoms: _263  and  _264
REMARK  100  A    between atoms: _263  and  _266
REMARK  101  A    between atoms: _266  and  _267
REMARK  102  A    between atoms: _267  and  _268
REMARK  103  A    between atoms: _270  and  _272
REMARK  104  A    between atoms: _272  and  _273
REMARK  105  A    between atoms: _272  and  _275
REMARK  106  A    between atoms: _275  and  _276
REMARK  107  A    between atoms: _279  and  _281
REMARK  108  A    between atoms: _281  and  _282
REMARK  109  A    between atoms: _285  and  _287
REMARK  110  A    between atoms: _287  and  _288
REMARK  111  A    between atoms: _287  and  _290
REMARK  112  A    between atoms: _290  and  _291
REMARK  113  A    between atoms: _291  and  _292
REMARK  114  A    between atoms: _295  and  _297
REMARK  115  A    between atoms: _297  and  _298
REMARK  116  A    between atoms: _297  and  _300
REMARK  117  A    between atoms: _300  and  _301
REMARK  118  A    between atoms: _307  and  _309
REMARK  119  A    between atoms: _309  and  _310
REMARK  120  A    between atoms: _312  and  _314
REMARK  121  A    between atoms: _314  and  _315
REMARK  122  A    between atoms: _314  and  _317
REMARK  123  A    between atoms: _320  and  _322
REMARK  124  A    between atoms: _322  and  _323
REMARK  125  A    between atoms: _322  and  _325
REMARK  126  A    between atoms: _328  and  _330
REMARK  127  A    between atoms: _330  and  _331
REMARK  128  A    between atoms: _333  and  _335
REMARK  129  A    between atoms: _335  and  _336
REMARK  130  A    between atoms: _335  and  _338
REMARK  131  A    between atoms: _338  and  _339
REMARK  132  A    between atoms: _339  and  _340
REMARK  133  A    between atoms: _342  and  _344
REMARK  134  A    between atoms: _344  and  _345
REMARK  135  A    between atoms: _344  and  _347
REMARK  136  A    between atoms: _347  and  _348
REMARK  137  A    between atoms: _353  and  _354
REMARK  138  A    between atoms: _356  and  _358
REMARK  139  A    between atoms: _358  and  _359
REMARK  140  A    between atoms: _358  and  _361
REMARK  141  A    between atoms: _361  and  _362
REMARK  142  A    between atoms: _365  and  _367
REMARK  143  A    between atoms: _367  and  _368
REMARK  144  A    between atoms: _367  and  _370
REMARK  145  A    between atoms: _373  and  _375
REMARK  146  A    between atoms: _375  and  _376
REMARK  147  A    between atoms: _375  and  _378
REMARK  148  A    between atoms: _378  and  _379
REMARK  149  A    between atoms: _382  and  _384
REMARK  150  A    between atoms: _384  and  _385
REMARK  151  A    between atoms: _384  and  _387
REMARK  152  A    between atoms: _387  and  _388
REMARK  153  A    between atoms: _391  and  _393
REMARK  154  A    between atoms: _393  and  _394
REMARK  155  A    between atoms: _396  and  _398
REMARK  156  A    between atoms: _398  and  _399
REMARK  157  A    between atoms: _402  and  _404
REMARK  158  A    between atoms: _404  and  _405
REMARK  159  A    between atoms: _404  and  _407
REMARK  160  A    between atoms: _407  and  _408
REMARK  161  A    between atoms: _410  and  _412
REMARK  162  A    between atoms: _412  and  _413
REMARK  163  A    between atoms: _412  and  _415
REMARK  164  A    between atoms: _415  and  _416
REMARK  165  A    between atoms: _421  and  _422
REMARK  166  A    between atoms: _424  and  _426
REMARK  167  A    between atoms: _426  and  _427
REMARK  168  A    between atoms: _426  and  _429
REMARK  169  A    between atoms: _429  and  _430
REMARK  170  A    between atoms: _433  and  _435
REMARK  171  A    between atoms: _435  and  _436
REMARK  172  A    between atoms: _435  and  _438
REMARK  173  A    between atoms: _438  and  _439
REMARK  174  A    between atoms: _441  and  _443
REMARK  175  A    between atoms: _443  and  _444
REMARK  176  A    between atoms: _446  and  _448
REMARK  177  A    between atoms: _448  and  _449
REMARK  178  A    between atoms: _448  and  _451
REMARK  179  A    between atoms: _451  and  _452
REMARK  180  A    between atoms: _457  and  _459
REMARK  181  A    between atoms: _459  and  _460
REMARK  182  A    between atoms: _463  and  _465
REMARK  183  A    between atoms: _465  and  _466
REMARK  184  A    between atoms: _465  and  _468
REMARK  185  A    between atoms: _468  and  _469
REMARK  186  A    between atoms: _469  and  _470
REMARK  187  A    between atoms: _472  and  _474
REMARK  188  A    between atoms: _474  and  _475
REMARK  189  A    between atoms: _474  and  _477
REMARK  190  A    between atoms: _477  and  _478
REMARK  191  A    between atoms: _481  and  _483
REMARK  192  A    between atoms: _483  and  _484
REMARK  193  A    between atoms: _483  and  _486
REMARK  194  A    between atoms: _486  and  _487
REMARK  195  A    between atoms: _490  and  _492
REMARK  196  A    between atoms: _492  and  _493
REMARK  197  A    between atoms: _496  and  _498
REMARK  198  A    between atoms: _498  and  _499
REMARK                            x       y       z     vdW  Elec       q    Type
REMARK                         _______ _______ _______ _____ _____    ______ ____
ROOT
ATOM      1  O   HOH     1      40.729  60.250  48.395  0.00  0.00    +0.000 OA
ENDROOT
TORSDOF 0
REMARK  Name = ../refined-set-2016/4s1g/4s1g_pocket.pdb
REMARK  198 active torsions:
REMARK  status: ('A' for Active; 'I' for Inactive)
REMARK    1  A    between atoms: _1  and  _3
REMARK    2  A    between atoms: _3  and  _4
REMARK    3  A    between atoms: _3  and  _6
REMARK    4  A    between atoms: _6  and  _7
REMARK    5  A    between atoms: _12  and  _13
REMARK    6  A    between atoms: _15  and  _17
REMARK    7  A    between atoms: _17  and  _18
REMARK    8  A    between atoms: _17  and  _20
REMARK    9  A    between atoms: _20  and  _21
REMARK   10  A    between atoms: _24  and  _26
REMARK   11  A    between atoms: _26  and  _27
REMARK   12  A    between atoms: _26  and  _29
REMARK   13  A    between atoms: _29  and  _30
REMARK   14  A    between atoms: _30  and  _31
REMARK   15  A    between atoms: _36  and  _38
REMARK   16  A    between atoms: _38  and  _39
REMARK   17  A    between atoms: _38  and  _41
REMARK   18  A    between atoms: _41  and  _42
REMARK   19  A    between atoms: _47  and  _48
REMARK   20  A    between atoms: _50  and  _52
REMARK   21  A    between atoms: _52  and  _53
REMARK   22  A    between atoms: _52  and  _55
REMARK   23  A    between atoms: _55  and  _56
REMARK   24  A    between atoms: _61  and  _62
REMARK   25  A    between atoms: _64  and  _66
REMARK   26  A    between atoms: _66  and  _67
REMARK   27  A    between atoms: _66  and  _69
REMARK   28  A    between atoms: _72  and  _74
REMARK   29  A    between atoms: _74  and  _75
REMARK   30  A    between atoms: _74  and  _77
REMARK   31  A    between atoms: _77  and  _78
REMARK   32  A    between atoms: _84  and  _86
REMARK   33  A    between atoms: _86  and  _87
REMARK   34  A    between atoms: _86  and  _89
REMARK   35  A    between atoms: _89  and  _90
REMARK   36  A    between atoms: _93  and  _95
REMARK   37  A    between atoms: _95  and  _96
REMARK   38  A    between atoms: _95  and  _98
REMARK   39  A    between atoms: _98  and  _99
REMARK   40  A    between atoms: _102  and  _104
REMARK   41  A    between atoms: _104  and  _105
REMARK   42  A    between atoms: _107  and  _109
REMARK   43  A    between atoms: _109  and  _110
REMARK   44  A    between atoms: _109  and  _112
REMARK   45  A    between atoms: _112  and  _113
REMARK   46  A    between atoms: _115  and  _117
REMARK   47  A    between atoms: _117  and  _118
REMARK   48  A    between atoms: _117  and  _120
REMARK   49  A    between atoms: _120  and  _121
REMARK   50  A    between atoms: _123  and  _125
REMARK   51  A    between atoms: _125  and  _126
REMARK   52  A    between atoms: _125  and  _128
REMARK   53  A    between atoms: _128  and  _129
REMARK   54  A    between atoms: _134  and  _136
REMARK   55  A    between atoms: _136  and  _137
REMARK   56  A    between atoms: _136  and  _139
REMARK   57  A    between atoms: _139  and  _140
REMARK   58  A    between atoms: _150  and  _152
REMARK   59  A    between atoms: _152  and  _153
REMARK   60  A    between atoms: _152  and  _155
REMARK   61  A    between atoms: _155  and  _156
REMARK   62  A    between atoms: _159  and  _161
REMARK   63  A    between atoms: _161  and  _162
REMARK   64  A    between atoms: _161  and  _164
REMARK   65  A    between atoms: _164  and  _165
REMARK   66  A    between atoms: _165  and  _166
REMARK   67  A    between atoms: _166  and  _167
REMARK   68  A    between atoms: _176  and  _178
REMARK   69  A    between atoms: _178  and  _179
REMARK   70  A    between atoms: _178  and  _181
REMARK   71  A    between atoms: _181  and  _182
REMARK   72  A    between atoms: _187  and  _188
REMARK   73  A    between atoms: _190  and  _192
REMARK   74  A    between atoms: _192  and  _193
REMARK   75  A    between atoms: _192  and  _195
REMARK   76  A    between atoms: _195  and  _196
REMARK   77  A    between atoms: _198  and  _200
REMARK   78  A    between atoms: _200  and  _201
REMARK   79  A    between atoms: _200  and  _203
REMARK   80  A    between atoms: _203  and  _204
REMARK   81  A    between atoms: _207  and  _209
REMARK   82  A    between atoms: _209  and  _210
REMARK   83  A    between atoms: _212  and  _214
REMARK   84  A    between atoms: _214  and  _215
REMARK   85  A    between atoms: _214  and  _217
REMARK   86  A    between atoms: _221  and  _222
REMARK   87  A    between atoms: _227  and  _229
REMARK   88  A    between atoms: _229  and  _230
REMARK   89  A    between atoms: _233  and  _235
REMARK   90  A    between atoms: _235  and  _236
REMARK   91  A    between atoms: _235  and  _238
REMARK   92  A    between atoms: _238  and  _239
REMARK   93  A    between atoms: _243  and  _244
REMARK   94  A    between atoms: _249  and  _251
REMARK   95  A    between atoms: _251  and  _252
REMARK   96  A    between atoms: _251  and  _254
REMARK   97  A    between atoms: _254  and  _255
REMARK   98  A    between atoms: _261  and  _263
REMARK   99  A    between atoms: _263  and  _264
REMARK  100  A    between atoms: _263  and  _266
REMARK  101  A    between atoms: _266  and  _267
REMARK  102  A    between atoms: _267  and  _268
REMARK  103  A    between atoms: _270  and  _272
REMARK  104  A    between atoms: _272  and  _273
REMARK  105  A    between atoms: _272  and  _275
REMARK  106  A    between atoms: _275  and  _276
REMARK  107  A    between atoms: _279  and  _281
REMARK  108  A    between atoms: _281  and  _282
REMARK  109  A    between atoms: _285  and  _287
REMARK  110  A    between atoms: _287  and  _288
REMARK  111  A    between atoms: _287  and  _290
REMARK  112  A    between atoms: _290  and  _291
REMARK  113  A    between atoms: _291  and  _292
REMARK  114  A    between atoms: _295  and  _297
REMARK  115  A    between atoms: _297  and  _298
REMARK  116  A    between atoms: _297  and  _300
REMARK  117  A    between atoms: _300  and  _301
REMARK  118  A    between atoms: _307  and  _309
REMARK  119  A    between atoms: _309  and  _310
REMARK  120  A    between atoms: _312  and  _314
REMARK  121  A    between atoms: _314  and  _315
REMARK  122  A    between atoms: _314  and  _317
REMARK  123  A    between atoms: _320  and  _322
REMARK  124  A    between atoms: _322  and  _323
REMARK  125  A    between atoms: _322  and  _325
REMARK  126  A    between atoms: _328  and  _330
REMARK  127  A    between atoms: _330  and  _331
REMARK  128  A    between atoms: _333  and  _335
REMARK  129  A    between atoms: _335  and  _336
REMARK  130  A    between atoms: _335  and  _338
REMARK  131  A    between atoms: _338  and  _339
REMARK  132  A    between atoms: _339  and  _340
REMARK  133  A    between atoms: _342  and  _344
REMARK  134  A    between atoms: _344  and  _345
REMARK  135  A    between atoms: _344  and  _347
REMARK  136  A    between atoms: _347  and  _348
REMARK  137  A    between atoms: _353  and  _354
REMARK  138  A    between atoms: _356  and  _358
REMARK  139  A    between atoms: _358  and  _359
REMARK  140  A    between atoms: _358  and  _361
REMARK  141  A    between atoms: _361  and  _362
REMARK  142  A    between atoms: _365  and  _367
REMARK  143  A    between atoms: _367  and  _368
REMARK  144  A    between atoms: _367  and  _370
REMARK  145  A    between atoms: _373  and  _375
REMARK  146  A    between atoms: _375  and  _376
REMARK  147  A    between atoms: _375  and  _378
REMARK  148  A    between atoms: _378  and  _379
REMARK  149  A    between atoms: _382  and  _384
REMARK  150  A    between atoms: _384  and  _385
REMARK  151  A    between atoms: _384  and  _387
REMARK  152  A    between atoms: _387  and  _388
REMARK  153  A    between atoms: _391  and  _393
REMARK  154  A    between atoms: _393  and  _394
REMARK  155  A    between atoms: _396  and  _398
REMARK  156  A    between atoms: _398  and  _399
REMARK  157  A    between atoms: _402  and  _404
REMARK  158  A    between atoms: _404  and  _405
REMARK  159  A    between atoms: _404  and  _407
REMARK  160  A    between atoms: _407  and  _408
REMARK  161  A    between atoms: _410  and  _412
REMARK  162  A    between atoms: _412  and  _413
REMARK  163  A    between atoms: _412  and  _415
REMARK  164  A    between atoms: _415  and  _416
REMARK  165  A    between atoms: _421  and  _422
REMARK  166  A    between atoms: _424  and  _426
REMARK  167  A    between atoms: _426  and  _427
REMARK  168  A    between atoms: _426  and  _429
REMARK  169  A    between atoms: _429  and  _430
REMARK  170  A    between atoms: _433  and  _435
REMARK  171  A    between atoms: _435  and  _436
REMARK  172  A    between atoms: _435  and  _438
REMARK  173  A    between atoms: _438  and  _439
REMARK  174  A    between atoms: _441  and  _443
REMARK  175  A    between atoms: _443  and  _444
REMARK  176  A    between atoms: _446  and  _448
REMARK  177  A    between atoms: _448  and  _449
REMARK  178  A    between atoms: _448  and  _451
REMARK  179  A    between atoms: _451  and  _452
REMARK  180  A    between atoms: _457  and  _459
REMARK  181  A    between atoms: _459  and  _460
REMARK  182  A    between atoms: _463  and  _465
REMARK  183  A    between atoms: _465  and  _466
REMARK  184  A    between atoms: _465  and  _468
REMARK  185  A    between atoms: _468  and  _469
REMARK  186  A    between atoms: _469  and  _470
REMARK  187  A    between atoms: _472  and  _474
REMARK  188  A    between atoms: _474  and  _475
REMARK  189  A    between atoms: _474  and  _477
REMARK  190  A    between atoms: _477  and  _478
REMARK  191  A    between atoms: _481  and  _483
REMARK  192  A    between atoms: _483  and  _484
REMARK  193  A    between atoms: _483  and  _486
REMARK  194  A    between atoms: _486  and  _487
REMARK  195  A    between atoms: _490  and  _492
REMARK  196  A    between atoms: _492  and  _493
REMARK  197  A    between atoms: _496  and  _498
REMARK  198  A    between atoms: _498  and  _499
REMARK                            x       y       z     vdW  Elec       q    Type
REMARK                         _______ _______ _______ _____ _____    ______ ____
ROOT
ATOM      1  O   HOH     1      39.282  65.110  42.698  0.00  0.00    +0.000 OA
ENDROOT
TORSDOF 0
REMARK  Name = ../refined-set-2016/4s1g/4s1g_pocket.pdb
REMARK  198 active torsions:
REMARK  status: ('A' for Active; 'I' for Inactive)
REMARK    1  A    between atoms: _1  and  _3
REMARK    2  A    between atoms: _3  and  _4
REMARK    3  A    between atoms: _3  and  _6
REMARK    4  A    between atoms: _6  and  _7
REMARK    5  A    between atoms: _12  and  _13
REMARK    6  A    between atoms: _15  and  _17
REMARK    7  A    between atoms: _17  and  _18
REMARK    8  A    between atoms: _17  and  _20
REMARK    9  A    between atoms: _20  and  _21
REMARK   10  A    between atoms: _24  and  _26
REMARK   11  A    between atoms: _26  and  _27
REMARK   12  A    between atoms: _26  and  _29
REMARK   13  A    between atoms: _29  and  _30
REMARK   14  A    between atoms: _30  and  _31
REMARK   15  A    between atoms: _36  and  _38
REMARK   16  A    between atoms: _38  and  _39
REMARK   17  A    between atoms: _38  and  _41
REMARK   18  A    between atoms: _41  and  _42
REMARK   19  A    between atoms: _47  and  _48
REMARK   20  A    between atoms: _50  and  _52
REMARK   21  A    between atoms: _52  and  _53
REMARK   22  A    between atoms: _52  and  _55
REMARK   23  A    between atoms: _55  and  _56
REMARK   24  A    between atoms: _61  and  _62
REMARK   25  A    between atoms: _64  and  _66
REMARK   26  A    between atoms: _66  and  _67
REMARK   27  A    between atoms: _66  and  _69
REMARK   28  A    between atoms: _72  and  _74
REMARK   29  A    between atoms: _74  and  _75
REMARK   30  A    between atoms: _74  and  _77
REMARK   31  A    between atoms: _77  and  _78
REMARK   32  A    between atoms: _84  and  _86
REMARK   33  A    between atoms: _86  and  _87
REMARK   34  A    between atoms: _86  and  _89
REMARK   35  A    between atoms: _89  and  _90
REMARK   36  A    between atoms: _93  and  _95
REMARK   37  A    between atoms: _95  and  _96
REMARK   38  A    between atoms: _95  and  _98
REMARK   39  A    between atoms: _98  and  _99
REMARK   40  A    between atoms: _102  and  _104
REMARK   41  A    between atoms: _104  and  _105
REMARK   42  A    between atoms: _107  and  _109
REMARK   43  A    between atoms: _109  and  _110
REMARK   44  A    between atoms: _109  and  _112
REMARK   45  A    between atoms: _112  and  _113
REMARK   46  A    between atoms: _115  and  _117
REMARK   47  A    between atoms: _117  and  _118
REMARK   48  A    between atoms: _117  and  _120
REMARK   49  A    between atoms: _120  and  _121
REMARK   50  A    between atoms: _123  and  _125
REMARK   51  A    between atoms: _125  and  _126
REMARK   52  A    between atoms: _125  and  _128
REMARK   53  A    between atoms: _128  and  _129
REMARK   54  A    between atoms: _134  and  _136
REMARK   55  A    between atoms: _136  and  _137
REMARK   56  A    between atoms: _136  and  _139
REMARK   57  A    between atoms: _139  and  _140
REMARK   58  A    between atoms: _150  and  _152
REMARK   59  A    between atoms: _152  and  _153
REMARK   60  A    between atoms: _152  and  _155
REMARK   61  A    between atoms: _155  and  _156
REMARK   62  A    between atoms: _159  and  _161
REMARK   63  A    between atoms: _161  and  _162
REMARK   64  A    between atoms: _161  and  _164
REMARK   65  A    between atoms: _164  and  _165
REMARK   66  A    between atoms: _165  and  _166
REMARK   67  A    between atoms: _166  and  _167
REMARK   68  A    between atoms: _176  and  _178
REMARK   69  A    between atoms: _178  and  _179
REMARK   70  A    between atoms: _178  and  _181
REMARK   71  A    between atoms: _181  and  _182
REMARK   72  A    between atoms: _187  and  _188
REMARK   73  A    between atoms: _190  and  _192
REMARK   74  A    between atoms: _192  and  _193
REMARK   75  A    between atoms: _192  and  _195
REMARK   76  A    between atoms: _195  and  _196
REMARK   77  A    between atoms: _198  and  _200
REMARK   78  A    between atoms: _200  and  _201
REMARK   79  A    between atoms: _200  and  _203
REMARK   80  A    between atoms: _203  and  _204
REMARK   81  A    between atoms: _207  and  _209
REMARK   82  A    between atoms: _209  and  _210
REMARK   83  A    between atoms: _212  and  _214
REMARK   84  A    between atoms: _214  and  _215
REMARK   85  A    between atoms: _214  and  _217
REMARK   86  A    between atoms: _221  and  _222
REMARK   87  A    between atoms: _227  and  _229
REMARK   88  A    between atoms: _229  and  _230
REMARK   89  A    between atoms: _233  and  _235
REMARK   90  A    between atoms: _235  and  _236
REMARK   91  A    between atoms: _235  and  _238
REMARK   92  A    between atoms: _238  and  _239
REMARK   93  A    between atoms: _243  and  _244
REMARK   94  A    between atoms: _249  and  _251
REMARK   95  A    between atoms: _251  and  _252
REMARK   96  A    between atoms: _251  and  _254
REMARK   97  A    between atoms: _254  and  _255
REMARK   98  A    between atoms: _261  and  _263
REMARK   99  A    between atoms: _263  and  _264
REMARK  100  A    between atoms: _263  and  _266
REMARK  101  A    between atoms: _266  and  _267
REMARK  102  A    between atoms: _267  and  _268
REMARK  103  A    between atoms: _270  and  _272
REMARK  104  A    between atoms: _272  and  _273
REMARK  105  A    between atoms: _272  and  _275
REMARK  106  A    between atoms: _275  and  _276
REMARK  107  A    between atoms: _279  and  _281
REMARK  108  A    between atoms: _281  and  _282
REMARK  109  A    between atoms: _285  and  _287
REMARK  110  A    between atoms: _287  and  _288
REMARK  111  A    between atoms: _287  and  _290
REMARK  112  A    between atoms: _290  and  _291
REMARK  113  A    between atoms: _291  and  _292
REMARK  114  A    between atoms: _295  and  _297
REMARK  115  A    between atoms: _297  and  _298
REMARK  116  A    between atoms: _297  and  _300
REMARK  117  A    between atoms: _300  and  _301
REMARK  118  A    between atoms: _307  and  _309
REMARK  119  A    between atoms: _309  and  _310
REMARK  120  A    between atoms: _312  and  _314
REMARK  121  A    between atoms: _314  and  _315
REMARK  122  A    between atoms: _314  and  _317
REMARK  123  A    between atoms: _320  and  _322
REMARK  124  A    between atoms: _322  and  _323
REMARK  125  A    between atoms: _322  and  _325
REMARK  126  A    between atoms: _328  and  _330
REMARK  127  A    between atoms: _330  and  _331
REMARK  128  A    between atoms: _333  and  _335
REMARK  129  A    between atoms: _335  and  _336
REMARK  130  A    between atoms: _335  and  _338
REMARK  131  A    between atoms: _338  and  _339
REMARK  132  A    between atoms: _339  and  _340
REMARK  133  A    between atoms: _342  and  _344
REMARK  134  A    between atoms: _344  and  _345
REMARK  135  A    between atoms: _344  and  _347
REMARK  136  A    between atoms: _347  and  _348
REMARK  137  A    between atoms: _353  and  _354
REMARK  138  A    between atoms: _356  and  _358
REMARK  139  A    between atoms: _358  and  _359
REMARK  140  A    between atoms: _358  and  _361
REMARK  141  A    between atoms: _361  and  _362
REMARK  142  A    between atoms: _365  and  _367
REMARK  143  A    between atoms: _367  and  _368
REMARK  144  A    between atoms: _367  and  _370
REMARK  145  A    between atoms: _373  and  _375
REMARK  146  A    between atoms: _375  and  _376
REMARK  147  A    between atoms: _375  and  _378
REMARK  148  A    between atoms: _378  and  _379
REMARK  149  A    between atoms: _382  and  _384
REMARK  150  A    between atoms: _384  and  _385
REMARK  151  A    between atoms: _384  and  _387
REMARK  152  A    between atoms: _387  and  _388
REMARK  153  A    between atoms: _391  and  _393
REMARK  154  A    between atoms: _393  and  _394
REMARK  155  A    between atoms: _396  and  _398
REMARK  156  A    between atoms: _398  and  _399
REMARK  157  A    between atoms: _402  and  _404
REMARK  158  A    between atoms: _404  and  _405
REMARK  159  A    between atoms: _404  and  _407
REMARK  160  A    between atoms: _407  and  _408
REMARK  161  A    between atoms: _410  and  _412
REMARK  162  A    between atoms: _412  and  _413
REMARK  163  A    between atoms: _412  and  _415
REMARK  164  A    between atoms: _415  and  _416
REMARK  165  A    between atoms: _421  and  _422
REMARK  166  A    between atoms: _424  and  _426
REMARK  167  A    between atoms: _426  and  _427
REMARK  168  A    between atoms: _426  and  _429
REMARK  169  A    between atoms: _429  and  _430
REMARK  170  A    between atoms: _433  and  _435
REMARK  171  A    between atoms: _435  and  _436
REMARK  172  A    between atoms: _435  and  _438
REMARK  173  A    between atoms: _438  and  _439
REMARK  174  A    between atoms: _441  and  _443
REMARK  175  A    between atoms: _443  and  _444
REMARK  176  A    between atoms: _446  and  _448
REMARK  177  A    between atoms: _448  and  _449
REMARK  178  A    between atoms: _448  and  _451
REMARK  179  A    between atoms: _451  and  _452
REMARK  180  A    between atoms: _457  and  _459
REMARK  181  A    between atoms: _459  and  _460
REMARK  182  A    between atoms: _463  and  _465
REMARK  183  A    between atoms: _465  and  _466
REMARK  184  A    between atoms: _465  and  _468
REMARK  185  A    between atoms: _468  and  _469
REMARK  186  A    between atoms: _469  and  _470
REMARK  187  A    between atoms: _472  and  _474
REMARK  188  A    between atoms: _474  and  _475
REMARK  189  A    between atoms: _474  and  _477
REMARK  190  A    between atoms: _477  and  _478
REMARK  191  A    between atoms: _481  and  _483
REMARK  192  A    between atoms: _483  and  _484
REMARK  193  A    between atoms: _483  and  _486
REMARK  194  A    between atoms: _486  and  _487
REMARK  195  A    between atoms: _490  and  _492
REMARK  196  A    between atoms: _492  and  _493
REMARK  197  A    between atoms: _496  and  _498
REMARK  198  A    between atoms: _498  and  _499
REMARK                            x       y       z     vdW  Elec       q    Type
REMARK                         _______ _______ _______ _____ _____    ______ ____
ROOT
ATOM      1  O   HOH     1      35.240  64.919  40.001  0.00  0.00    +0.000 OA
ENDROOT
TORSDOF 0
REMARK  Name = ../refined-set-2016/4s1g/4s1g_pocket.pdb
REMARK  198 active torsions:
REMARK  status: ('A' for Active; 'I' for Inactive)
REMARK    1  A    between atoms: _1  and  _3
REMARK    2  A    between atoms: _3  and  _4
REMARK    3  A    between atoms: _3  and  _6
REMARK    4  A    between atoms: _6  and  _7
REMARK    5  A    between atoms: _12  and  _13
REMARK    6  A    between atoms: _15  and  _17
REMARK    7  A    between atoms: _17  and  _18
REMARK    8  A    between atoms: _17  and  _20
REMARK    9  A    between atoms: _20  and  _21
REMARK   10  A    between atoms: _24  and  _26
REMARK   11  A    between atoms: _26  and  _27
REMARK   12  A    between atoms: _26  and  _29
REMARK   13  A    between atoms: _29  and  _30
REMARK   14  A    between atoms: _30  and  _31
REMARK   15  A    between atoms: _36  and  _38
REMARK   16  A    between atoms: _38  and  _39
REMARK   17  A    between atoms: _38  and  _41
REMARK   18  A    between atoms: _41  and  _42
REMARK   19  A    between atoms: _47  and  _48
REMARK   20  A    between atoms: _50  and  _52
REMARK   21  A    between atoms: _52  and  _53
REMARK   22  A    between atoms: _52  and  _55
REMARK   23  A    between atoms: _55  and  _56
REMARK   24  A    between atoms: _61  and  _62
REMARK   25  A    between atoms: _64  and  _66
REMARK   26  A    between atoms: _66  and  _67
REMARK   27  A    between atoms: _66  and  _69
REMARK   28  A    between atoms: _72  and  _74
REMARK   29  A    between atoms: _74  and  _75
REMARK   30  A    between atoms: _74  and  _77
REMARK   31  A    between atoms: _77  and  _78
REMARK   32  A    between atoms: _84  and  _86
REMARK   33  A    between atoms: _86  and  _87
REMARK   34  A    between atoms: _86  and  _89
REMARK   35  A    between atoms: _89  and  _90
REMARK   36  A    between atoms: _93  and  _95
REMARK   37  A    between atoms: _95  and  _96
REMARK   38  A    between atoms: _95  and  _98
REMARK   39  A    between atoms: _98  and  _99
REMARK   40  A    between atoms: _102  and  _104
REMARK   41  A    between atoms: _104  and  _105
REMARK   42  A    between atoms: _107  and  _109
REMARK   43  A    between atoms: _109  and  _110
REMARK   44  A    between atoms: _109  and  _112
REMARK   45  A    between atoms: _112  and  _113
REMARK   46  A    between atoms: _115  and  _117
REMARK   47  A    between atoms: _117  and  _118
REMARK   48  A    between atoms: _117  and  _120
REMARK   49  A    between atoms: _120  and  _121
REMARK   50  A    between atoms: _123  and  _125
REMARK   51  A    between atoms: _125  and  _126
REMARK   52  A    between atoms: _125  and  _128
REMARK   53  A    between atoms: _128  and  _129
REMARK   54  A    between atoms: _134  and  _136
REMARK   55  A    between atoms: _136  and  _137
REMARK   56  A    between atoms: _136  and  _139
REMARK   57  A    between atoms: _139  and  _140
REMARK   58  A    between atoms: _150  and  _152
REMARK   59  A    between atoms: _152  and  _153
REMARK   60  A    between atoms: _152  and  _155
REMARK   61  A    between atoms: _155  and  _156
REMARK   62  A    between atoms: _159  and  _161
REMARK   63  A    between atoms: _161  and  _162
REMARK   64  A    between atoms: _161  and  _164
REMARK   65  A    between atoms: _164  and  _165
REMARK   66  A    between atoms: _165  and  _166
REMARK   67  A    between atoms: _166  and  _167
REMARK   68  A    between atoms: _176  and  _178
REMARK   69  A    between atoms: _178  and  _179
REMARK   70  A    between atoms: _178  and  _181
REMARK   71  A    between atoms: _181  and  _182
REMARK   72  A    between atoms: _187  and  _188
REMARK   73  A    between atoms: _190  and  _192
REMARK   74  A    between atoms: _192  and  _193
REMARK   75  A    between atoms: _192  and  _195
REMARK   76  A    between atoms: _195  and  _196
REMARK   77  A    between atoms: _198  and  _200
REMARK   78  A    between atoms: _200  and  _201
REMARK   79  A    between atoms: _200  and  _203
REMARK   80  A    between atoms: _203  and  _204
REMARK   81  A    between atoms: _207  and  _209
REMARK   82  A    between atoms: _209  and  _210
REMARK   83  A    between atoms: _212  and  _214
REMARK   84  A    between atoms: _214  and  _215
REMARK   85  A    between atoms: _214  and  _217
REMARK   86  A    between atoms: _221  and  _222
REMARK   87  A    between atoms: _227  and  _229
REMARK   88  A    between atoms: _229  and  _230
REMARK   89  A    between atoms: _233  and  _235
REMARK   90  A    between atoms: _235  and  _236
REMARK   91  A    between atoms: _235  and  _238
REMARK   92  A    between atoms: _238  and  _239
REMARK   93  A    between atoms: _243  and  _244
REMARK   94  A    between atoms: _249  and  _251
REMARK   95  A    between atoms: _251  and  _252
REMARK   96  A    between atoms: _251  and  _254
REMARK   97  A    between atoms: _254  and  _255
REMARK   98  A    between atoms: _261  and  _263
REMARK   99  A    between atoms: _263  and  _264
REMARK  100  A    between atoms: _263  and  _266
REMARK  101  A    between atoms: _266  and  _267
REMARK  102  A    between atoms: _267  and  _268
REMARK  103  A    between atoms: _270  and  _272
REMARK  104  A    between atoms: _272  and  _273
REMARK  105  A    between atoms: _272  and  _275
REMARK  106  A    between atoms: _275  and  _276
REMARK  107  A    between atoms: _279  and  _281
REMARK  108  A    between atoms: _281  and  _282
REMARK  109  A    between atoms: _285  and  _287
REMARK  110  A    between atoms: _287  and  _288
REMARK  111  A    between atoms: _287  and  _290
REMARK  112  A    between atoms: _290  and  _291
REMARK  113  A    between atoms: _291  and  _292
REMARK  114  A    between atoms: _295  and  _297
REMARK  115  A    between atoms: _297  and  _298
REMARK  116  A    between atoms: _297  and  _300
REMARK  117  A    between atoms: _300  and  _301
REMARK  118  A    between atoms: _307  and  _309
REMARK  119  A    between atoms: _309  and  _310
REMARK  120  A    between atoms: _312  and  _314
REMARK  121  A    between atoms: _314  and  _315
REMARK  122  A    between atoms: _314  and  _317
REMARK  123  A    between atoms: _320  and  _322
REMARK  124  A    between atoms: _322  and  _323
REMARK  125  A    between atoms: _322  and  _325
REMARK  126  A    between atoms: _328  and  _330
REMARK  127  A    between atoms: _330  and  _331
REMARK  128  A    between atoms: _333  and  _335
REMARK  129  A    between atoms: _335  and  _336
REMARK  130  A    between atoms: _335  and  _338
REMARK  131  A    between atoms: _338  and  _339
REMARK  132  A    between atoms: _339  and  _340
REMARK  133  A    between atoms: _342  and  _344
REMARK  134  A    between atoms: _344  and  _345
REMARK  135  A    between atoms: _344  and  _347
REMARK  136  A    between atoms: _347  and  _348
REMARK  137  A    between atoms: _353  and  _354
REMARK  138  A    between atoms: _356  and  _358
REMARK  139  A    between atoms: _358  and  _359
REMARK  140  A    between atoms: _358  and  _361
REMARK  141  A    between atoms: _361  and  _362
REMARK  142  A    between atoms: _365  and  _367
REMARK  143  A    between atoms: _367  and  _368
REMARK  144  A    between atoms: _367  and  _370
REMARK  145  A    between atoms: _373  and  _375
REMARK  146  A    between atoms: _375  and  _376
REMARK  147  A    between atoms: _375  and  _378
REMARK  148  A    between atoms: _378  and  _379
REMARK  149  A    between atoms: _382  and  _384
REMARK  150  A    between atoms: _384  and  _385
REMARK  151  A    between atoms: _384  and  _387
REMARK  152  A    between atoms: _387  and  _388
REMARK  153  A    between atoms: _391  and  _393
REMARK  154  A    between atoms: _393  and  _394
REMARK  155  A    between atoms: _396  and  _398
REMARK  156  A    between atoms: _398  and  _399
REMARK  157  A    between atoms: _402  and  _404
REMARK  158  A    between atoms: _404  and  _405
REMARK  159  A    between atoms: _404  and  _407
REMARK  160  A    between atoms: _407  and  _408
REMARK  161  A    between atoms: _410  and  _412
REMARK  162  A    between atoms: _412  and  _413
REMARK  163  A    between atoms: _412  and  _415
REMARK  164  A    between atoms: _415  and  _416
REMARK  165  A    between atoms: _421  and  _422
REMARK  166  A    between atoms: _424  and  _426
REMARK  167  A    between atoms: _426  and  _427
REMARK  168  A    between atoms: _426  and  _429
REMARK  169  A    between atoms: _429  and  _430
REMARK  170  A    between atoms: _433  and  _435
REMARK  171  A    between atoms: _435  and  _436
REMARK  172  A    between atoms: _435  and  _438
REMARK  173  A    between atoms: _438  and  _439
REMARK  174  A    between atoms: _441  and  _443
REMARK  175  A    between atoms: _443  and  _444
REMARK  176  A    between atoms: _446  and  _448
REMARK  177  A    between atoms: _448  and  _449
REMARK  178  A    between atoms: _448  and  _451
REMARK  179  A    between atoms: _451  and  _452
REMARK  180  A    between atoms: _457  and  _459
REMARK  181  A    between atoms: _459  and  _460
REMARK  182  A    between atoms: _463  and  _465
REMARK  183  A    between atoms: _465  and  _466
REMARK  184  A    between atoms: _465  and  _468
REMARK  185  A    between atoms: _468  and  _469
REMARK  186  A    between atoms: _469  and  _470
REMARK  187  A    between atoms: _472  and  _474
REMARK  188  A    between atoms: _474  and  _475
REMARK  189  A    between atoms: _474  and  _477
REMARK  190  A    between atoms: _477  and  _478
REMARK  191  A    between atoms: _481  and  _483
REMARK  192  A    between atoms: _483  and  _484
REMARK  193  A    between atoms: _483  and  _486
REMARK  194  A    between atoms: _486  and  _487
REMARK  195  A    between atoms: _490  and  _492
REMARK  196  A    between atoms: _492  and  _493
REMARK  197  A    between atoms: _496  and  _498
REMARK  198  A    between atoms: _498  and  _499
REMARK                            x       y       z     vdW  Elec       q    Type
REMARK                         _______ _______ _______ _____ _____    ______ ____
ROOT
ATOM      1  O   HOH     1      28.039  64.851  37.074  0.00  0.00    +0.000 OA
ENDROOT
TORSDOF 0
REMARK  Name = ../refined-set-2016/4s1g/4s1g_pocket.pdb
REMARK  198 active torsions:
REMARK  status: ('A' for Active; 'I' for Inactive)
REMARK    1  A    between atoms: _1  and  _3
REMARK    2  A    between atoms: _3  and  _4
REMARK    3  A    between atoms: _3  and  _6
REMARK    4  A    between atoms: _6  and  _7
REMARK    5  A    between atoms: _12  and  _13
REMARK    6  A    between atoms: _15  and  _17
REMARK    7  A    between atoms: _17  and  _18
REMARK    8  A    between atoms: _17  and  _20
REMARK    9  A    between atoms: _20  and  _21
REMARK   10  A    between atoms: _24  and  _26
REMARK   11  A    between atoms: _26  and  _27
REMARK   12  A    between atoms: _26  and  _29
REMARK   13  A    between atoms: _29  and  _30
REMARK   14  A    between atoms: _30  and  _31
REMARK   15  A    between atoms: _36  and  _38
REMARK   16  A    between atoms: _38  and  _39
REMARK   17  A    between atoms: _38  and  _41
REMARK   18  A    between atoms: _41  and  _42
REMARK   19  A    between atoms: _47  and  _48
REMARK   20  A    between atoms: _50  and  _52
REMARK   21  A    between atoms: _52  and  _53
REMARK   22  A    between atoms: _52  and  _55
REMARK   23  A    between atoms: _55  and  _56
REMARK   24  A    between atoms: _61  and  _62
REMARK   25  A    between atoms: _64  and  _66
REMARK   26  A    between atoms: _66  and  _67
REMARK   27  A    between atoms: _66  and  _69
REMARK   28  A    between atoms: _72  and  _74
REMARK   29  A    between atoms: _74  and  _75
REMARK   30  A    between atoms: _74  and  _77
REMARK   31  A    between atoms: _77  and  _78
REMARK   32  A    between atoms: _84  and  _86
REMARK   33  A    between atoms: _86  and  _87
REMARK   34  A    between atoms: _86  and  _89
REMARK   35  A    between atoms: _89  and  _90
REMARK   36  A    between atoms: _93  and  _95
REMARK   37  A    between atoms: _95  and  _96
REMARK   38  A    between atoms: _95  and  _98
REMARK   39  A    between atoms: _98  and  _99
REMARK   40  A    between atoms: _102  and  _104
REMARK   41  A    between atoms: _104  and  _105
REMARK   42  A    between atoms: _107  and  _109
REMARK   43  A    between atoms: _109  and  _110
REMARK   44  A    between atoms: _109  and  _112
REMARK   45  A    between atoms: _112  and  _113
REMARK   46  A    between atoms: _115  and  _117
REMARK   47  A    between atoms: _117  and  _118
REMARK   48  A    between atoms: _117  and  _120
REMARK   49  A    between atoms: _120  and  _121
REMARK   50  A    between atoms: _123  and  _125
REMARK   51  A    between atoms: _125  and  _126
REMARK   52  A    between atoms: _125  and  _128
REMARK   53  A    between atoms: _128  and  _129
REMARK   54  A    between atoms: _134  and  _136
REMARK   55  A    between atoms: _136  and  _137
REMARK   56  A    between atoms: _136  and  _139
REMARK   57  A    between atoms: _139  and  _140
REMARK   58  A    between atoms: _150  and  _152
REMARK   59  A    between atoms: _152  and  _153
REMARK   60  A    between atoms: _152  and  _155
REMARK   61  A    between atoms: _155  and  _156
REMARK   62  A    between atoms: _159  and  _161
REMARK   63  A    between atoms: _161  and  _162
REMARK   64  A    between atoms: _161  and  _164
REMARK   65  A    between atoms: _164  and  _165
REMARK   66  A    between atoms: _165  and  _166
REMARK   67  A    between atoms: _166  and  _167
REMARK   68  A    between atoms: _176  and  _178
REMARK   69  A    between atoms: _178  and  _179
REMARK   70  A    between atoms: _178  and  _181
REMARK   71  A    between atoms: _181  and  _182
REMARK   72  A    between atoms: _187  and  _188
REMARK   73  A    between atoms: _190  and  _192
REMARK   74  A    between atoms: _192  and  _193
REMARK   75  A    between atoms: _192  and  _195
REMARK   76  A    between atoms: _195  and  _196
REMARK   77  A    between atoms: _198  and  _200
REMARK   78  A    between atoms: _200  and  _201
REMARK   79  A    between atoms: _200  and  _203
REMARK   80  A    between atoms: _203  and  _204
REMARK   81  A    between atoms: _207  and  _209
REMARK   82  A    between atoms: _209  and  _210
REMARK   83  A    between atoms: _212  and  _214
REMARK   84  A    between atoms: _214  and  _215
REMARK   85  A    between atoms: _214  and  _217
REMARK   86  A    between atoms: _221  and  _222
REMARK   87  A    between atoms: _227  and  _229
REMARK   88  A    between atoms: _229  and  _230
REMARK   89  A    between atoms: _233  and  _235
REMARK   90  A    between atoms: _235  and  _236
REMARK   91  A    between atoms: _235  and  _238
REMARK   92  A    between atoms: _238  and  _239
REMARK   93  A    between atoms: _243  and  _244
REMARK   94  A    between atoms: _249  and  _251
REMARK   95  A    between atoms: _251  and  _252
REMARK   96  A    between atoms: _251  and  _254
REMARK   97  A    between atoms: _254  and  _255
REMARK   98  A    between atoms: _261  and  _263
REMARK   99  A    between atoms: _263  and  _264
REMARK  100  A    between atoms: _263  and  _266
REMARK  101  A    between atoms: _266  and  _267
REMARK  102  A    between atoms: _267  and  _268
REMARK  103  A    between atoms: _270  and  _272
REMARK  104  A    between atoms: _272  and  _273
REMARK  105  A    between atoms: _272  and  _275
REMARK  106  A    between atoms: _275  and  _276
REMARK  107  A    between atoms: _279  and  _281
REMARK  108  A    between atoms: _281  and  _282
REMARK  109  A    between atoms: _285  and  _287
REMARK  110  A    between atoms: _287  and  _288
REMARK  111  A    between atoms: _287  and  _290
REMARK  112  A    between atoms: _290  and  _291
REMARK  113  A    between atoms: _291  and  _292
REMARK  114  A    between atoms: _295  and  _297
REMARK  115  A    between atoms: _297  and  _298
REMARK  116  A    between atoms: _297  and  _300
REMARK  117  A    between atoms: _300  and  _301
REMARK  118  A    between atoms: _307  and  _309
REMARK  119  A    between atoms: _309  and  _310
REMARK  120  A    between atoms: _312  and  _314
REMARK  121  A    between atoms: _314  and  _315
REMARK  122  A    between atoms: _314  and  _317
REMARK  123  A    between atoms: _320  and  _322
REMARK  124  A    between atoms: _322  and  _323
REMARK  125  A    between atoms: _322  and  _325
REMARK  126  A    between atoms: _328  and  _330
REMARK  127  A    between atoms: _330  and  _331
REMARK  128  A    between atoms: _333  and  _335
REMARK  129  A    between atoms: _335  and  _336
REMARK  130  A    between atoms: _335  and  _338
REMARK  131  A    between atoms: _338  and  _339
REMARK  132  A    between atoms: _339  and  _340
REMARK  133  A    between atoms: _342  and  _344
REMARK  134  A    between atoms: _344  and  _345
REMARK  135  A    between atoms: _344  and  _347
REMARK  136  A    between atoms: _347  and  _348
REMARK  137  A    between atoms: _353  and  _354
REMARK  138  A    between atoms: _356  and  _358
REMARK  139  A    between atoms: _358  and  _359
REMARK  140  A    between atoms: _358  and  _361
REMARK  141  A    between atoms: _361  and  _362
REMARK  142  A    between atoms: _365  and  _367
REMARK  143  A    between atoms: _367  and  _368
REMARK  144  A    between atoms: _367  and  _370
REMARK  145  A    between atoms: _373  and  _375
REMARK  146  A    between atoms: _375  and  _376
REMARK  147  A    between atoms: _375  and  _378
REMARK  148  A    between atoms: _378  and  _379
REMARK  149  A    between atoms: _382  and  _384
REMARK  150  A    between atoms: _384  and  _385
REMARK  151  A    between atoms: _384  and  _387
REMARK  152  A    between atoms: _387  and  _388
REMARK  153  A    between atoms: _391  and  _393
REMARK  154  A    between atoms: _393  and  _394
REMARK  155  A    between atoms: _396  and  _398
REMARK  156  A    between atoms: _398  and  _399
REMARK  157  A    between atoms: _402  and  _404
REMARK  158  A    between atoms: _404  and  _405
REMARK  159  A    between atoms: _404  and  _407
REMARK  160  A    between atoms: _407  and  _408
REMARK  161  A    between atoms: _410  and  _412
REMARK  162  A    between atoms: _412  and  _413
REMARK  163  A    between atoms: _412  and  _415
REMARK  164  A    between atoms: _415  and  _416
REMARK  165  A    between atoms: _421  and  _422
REMARK  166  A    between atoms: _424  and  _426
REMARK  167  A    between atoms: _426  and  _427
REMARK  168  A    between atoms: _426  and  _429
REMARK  169  A    between atoms: _429  and  _430
REMARK  170  A    between atoms: _433  and  _435
REMARK  171  A    between atoms: _435  and  _436
REMARK  172  A    between atoms: _435  and  _438
REMARK  173  A    between atoms: _438  and  _439
REMARK  174  A    between atoms: _441  and  _443
REMARK  175  A    between atoms: _443  and  _444
REMARK  176  A    between atoms: _446  and  _448
REMARK  177  A    between atoms: _448  and  _449
REMARK  178  A    between atoms: _448  and  _451
REMARK  179  A    between atoms: _451  and  _452
REMARK  180  A    between atoms: _457  and  _459
REMARK  181  A    between atoms: _459  and  _460
REMARK  182  A    between atoms: _463  and  _465
REMARK  183  A    between atoms: _465  and  _466
REMARK  184  A    between atoms: _465  and  _468
REMARK  185  A    between atoms: _468  and  _469
REMARK  186  A    between atoms: _469  and  _470
REMARK  187  A    between atoms: _472  and  _474
REMARK  188  A    between atoms: _474  and  _475
REMARK  189  A    between atoms: _474  and  _477
REMARK  190  A    between atoms: _477  and  _478
REMARK  191  A    between atoms: _481  and  _483
REMARK  192  A    between atoms: _483  and  _484
REMARK  193  A    between atoms: _483  and  _486
REMARK  194  A    between atoms: _486  and  _487
REMARK  195  A    between atoms: _490  and  _492
REMARK  196  A    between atoms: _492  and  _493
REMARK  197  A    between atoms: _496  and  _498
REMARK  198  A    between atoms: _498  and  _499
REMARK                            x       y       z     vdW  Elec       q    Type
REMARK                         _______ _______ _______ _____ _____    ______ ____
ROOT
ATOM      1  O   HOH     1      35.139  53.540  41.561  0.00  0.00    +0.000 OA
ENDROOT
TORSDOF 0
REMARK  Name = ../refined-set-2016/4s1g/4s1g_pocket.pdb
REMARK  198 active torsions:
REMARK  status: ('A' for Active; 'I' for Inactive)
REMARK    1  A    between atoms: _1  and  _3
REMARK    2  A    between atoms: _3  and  _4
REMARK    3  A    between atoms: _3  and  _6
REMARK    4  A    between atoms: _6  and  _7
REMARK    5  A    between atoms: _12  and  _13
REMARK    6  A    between atoms: _15  and  _17
REMARK    7  A    between atoms: _17  and  _18
REMARK    8  A    between atoms: _17  and  _20
REMARK    9  A    between atoms: _20  and  _21
REMARK   10  A    between atoms: _24  and  _26
REMARK   11  A    between atoms: _26  and  _27
REMARK   12  A    between atoms: _26  and  _29
REMARK   13  A    between atoms: _29  and  _30
REMARK   14  A    between atoms: _30  and  _31
REMARK   15  A    between atoms: _36  and  _38
REMARK   16  A    between atoms: _38  and  _39
REMARK   17  A    between atoms: _38  and  _41
REMARK   18  A    between atoms: _41  and  _42
REMARK   19  A    between atoms: _47  and  _48
REMARK   20  A    between atoms: _50  and  _52
REMARK   21  A    between atoms: _52  and  _53
REMARK   22  A    between atoms: _52  and  _55
REMARK   23  A    between atoms: _55  and  _56
REMARK   24  A    between atoms: _61  and  _62
REMARK   25  A    between atoms: _64  and  _66
REMARK   26  A    between atoms: _66  and  _67
REMARK   27  A    between atoms: _66  and  _69
REMARK   28  A    between atoms: _72  and  _74
REMARK   29  A    between atoms: _74  and  _75
REMARK   30  A    between atoms: _74  and  _77
REMARK   31  A    between atoms: _77  and  _78
REMARK   32  A    between atoms: _84  and  _86
REMARK   33  A    between atoms: _86  and  _87
REMARK   34  A    between atoms: _86  and  _89
REMARK   35  A    between atoms: _89  and  _90
REMARK   36  A    between atoms: _93  and  _95
REMARK   37  A    between atoms: _95  and  _96
REMARK   38  A    between atoms: _95  and  _98
REMARK   39  A    between atoms: _98  and  _99
REMARK   40  A    between atoms: _102  and  _104
REMARK   41  A    between atoms: _104  and  _105
REMARK   42  A    between atoms: _107  and  _109
REMARK   43  A    between atoms: _109  and  _110
REMARK   44  A    between atoms: _109  and  _112
REMARK   45  A    between atoms: _112  and  _113
REMARK   46  A    between atoms: _115  and  _117
REMARK   47  A    between atoms: _117  and  _118
REMARK   48  A    between atoms: _117  and  _120
REMARK   49  A    between atoms: _120  and  _121
REMARK   50  A    between atoms: _123  and  _125
REMARK   51  A    between atoms: _125  and  _126
REMARK   52  A    between atoms: _125  and  _128
REMARK   53  A    between atoms: _128  and  _129
REMARK   54  A    between atoms: _134  and  _136
REMARK   55  A    between atoms: _136  and  _137
REMARK   56  A    between atoms: _136  and  _139
REMARK   57  A    between atoms: _139  and  _140
REMARK   58  A    between atoms: _150  and  _152
REMARK   59  A    between atoms: _152  and  _153
REMARK   60  A    between atoms: _152  and  _155
REMARK   61  A    between atoms: _155  and  _156
REMARK   62  A    between atoms: _159  and  _161
REMARK   63  A    between atoms: _161  and  _162
REMARK   64  A    between atoms: _161  and  _164
REMARK   65  A    between atoms: _164  and  _165
REMARK   66  A    between atoms: _165  and  _166
REMARK   67  A    between atoms: _166  and  _167
REMARK   68  A    between atoms: _176  and  _178
REMARK   69  A    between atoms: _178  and  _179
REMARK   70  A    between atoms: _178  and  _181
REMARK   71  A    between atoms: _181  and  _182
REMARK   72  A    between atoms: _187  and  _188
REMARK   73  A    between atoms: _190  and  _192
REMARK   74  A    between atoms: _192  and  _193
REMARK   75  A    between atoms: _192  and  _195
REMARK   76  A    between atoms: _195  and  _196
REMARK   77  A    between atoms: _198  and  _200
REMARK   78  A    between atoms: _200  and  _201
REMARK   79  A    between atoms: _200  and  _203
REMARK   80  A    between atoms: _203  and  _204
REMARK   81  A    between atoms: _207  and  _209
REMARK   82  A    between atoms: _209  and  _210
REMARK   83  A    between atoms: _212  and  _214
REMARK   84  A    between atoms: _214  and  _215
REMARK   85  A    between atoms: _214  and  _217
REMARK   86  A    between atoms: _221  and  _222
REMARK   87  A    between atoms: _227  and  _229
REMARK   88  A    between atoms: _229  and  _230
REMARK   89  A    between atoms: _233  and  _235
REMARK   90  A    between atoms: _235  and  _236
REMARK   91  A    between atoms: _235  and  _238
REMARK   92  A    between atoms: _238  and  _239
REMARK   93  A    between atoms: _243  and  _244
REMARK   94  A    between atoms: _249  and  _251
REMARK   95  A    between atoms: _251  and  _252
REMARK   96  A    between atoms: _251  and  _254
REMARK   97  A    between atoms: _254  and  _255
REMARK   98  A    between atoms: _261  and  _263
REMARK   99  A    between atoms: _263  and  _264
REMARK  100  A    between atoms: _263  and  _266
REMARK  101  A    between atoms: _266  and  _267
REMARK  102  A    between atoms: _267  and  _268
REMARK  103  A    between atoms: _270  and  _272
REMARK  104  A    between atoms: _272  and  _273
REMARK  105  A    between atoms: _272  and  _275
REMARK  106  A    between atoms: _275  and  _276
REMARK  107  A    between atoms: _279  and  _281
REMARK  108  A    between atoms: _281  and  _282
REMARK  109  A    between atoms: _285  and  _287
REMARK  110  A    between atoms: _287  and  _288
REMARK  111  A    between atoms: _287  and  _290
REMARK  112  A    between atoms: _290  and  _291
REMARK  113  A    between atoms: _291  and  _292
REMARK  114  A    between atoms: _295  and  _297
REMARK  115  A    between atoms: _297  and  _298
REMARK  116  A    between atoms: _297  and  _300
REMARK  117  A    between atoms: _300  and  _301
REMARK  118  A    between atoms: _307  and  _309
REMARK  119  A    between atoms: _309  and  _310
REMARK  120  A    between atoms: _312  and  _314
REMARK  121  A    between atoms: _314  and  _315
REMARK  122  A    between atoms: _314  and  _317
REMARK  123  A    between atoms: _320  and  _322
REMARK  124  A    between atoms: _322  and  _323
REMARK  125  A    between atoms: _322  and  _325
REMARK  126  A    between atoms: _328  and  _330
REMARK  127  A    between atoms: _330  and  _331
REMARK  128  A    between atoms: _333  and  _335
REMARK  129  A    between atoms: _335  and  _336
REMARK  130  A    between atoms: _335  and  _338
REMARK  131  A    between atoms: _338  and  _339
REMARK  132  A    between atoms: _339  and  _340
REMARK  133  A    between atoms: _342  and  _344
REMARK  134  A    between atoms: _344  and  _345
REMARK  135  A    between atoms: _344  and  _347
REMARK  136  A    between atoms: _347  and  _348
REMARK  137  A    between atoms: _353  and  _354
REMARK  138  A    between atoms: _356  and  _358
REMARK  139  A    between atoms: _358  and  _359
REMARK  140  A    between atoms: _358  and  _361
REMARK  141  A    between atoms: _361  and  _362
REMARK  142  A    between atoms: _365  and  _367
REMARK  143  A    between atoms: _367  and  _368
REMARK  144  A    between atoms: _367  and  _370
REMARK  145  A    between atoms: _373  and  _375
REMARK  146  A    between atoms: _375  and  _376
REMARK  147  A    between atoms: _375  and  _378
REMARK  148  A    between atoms: _378  and  _379
REMARK  149  A    between atoms: _382  and  _384
REMARK  150  A    between atoms: _384  and  _385
REMARK  151  A    between atoms: _384  and  _387
REMARK  152  A    between atoms: _387  and  _388
REMARK  153  A    between atoms: _391  and  _393
REMARK  154  A    between atoms: _393  and  _394
REMARK  155  A    between atoms: _396  and  _398
REMARK  156  A    between atoms: _398  and  _399
REMARK  157  A    between atoms: _402  and  _404
REMARK  158  A    between atoms: _404  and  _405
REMARK  159  A    between atoms: _404  and  _407
REMARK  160  A    between atoms: _407  and  _408
REMARK  161  A    between atoms: _410  and  _412
REMARK  162  A    between atoms: _412  and  _413
REMARK  163  A    between atoms: _412  and  _415
REMARK  164  A    between atoms: _415  and  _416
REMARK  165  A    between atoms: _421  and  _422
REMARK  166  A    between atoms: _424  and  _426
REMARK  167  A    between atoms: _426  and  _427
REMARK  168  A    between atoms: _426  and  _429
REMARK  169  A    between atoms: _429  and  _430
REMARK  170  A    between atoms: _433  and  _435
REMARK  171  A    between atoms: _435  and  _436
REMARK  172  A    between atoms: _435  and  _438
REMARK  173  A    between atoms: _438  and  _439
REMARK  174  A    between atoms: _441  and  _443
REMARK  175  A    between atoms: _443  and  _444
REMARK  176  A    between atoms: _446  and  _448
REMARK  177  A    between atoms: _448  and  _449
REMARK  178  A    between atoms: _448  and  _451
REMARK  179  A    between atoms: _451  and  _452
REMARK  180  A    between atoms: _457  and  _459
REMARK  181  A    between atoms: _459  and  _460
REMARK  182  A    between atoms: _463  and  _465
REMARK  183  A    between atoms: _465  and  _466
REMARK  184  A    between atoms: _465  and  _468
REMARK  185  A    between atoms: _468  and  _469
REMARK  186  A    between atoms: _469  and  _470
REMARK  187  A    between atoms: _472  and  _474
REMARK  188  A    between atoms: _474  and  _475
REMARK  189  A    between atoms: _474  and  _477
REMARK  190  A    between atoms: _477  and  _478
REMARK  191  A    between atoms: _481  and  _483
REMARK  192  A    between atoms: _483  and  _484
REMARK  193  A    between atoms: _483  and  _486
REMARK  194  A    between atoms: _486  and  _487
REMARK  195  A    between atoms: _490  and  _492
REMARK  196  A    between atoms: _492  and  _493
REMARK  197  A    between atoms: _496  and  _498
REMARK  198  A    between atoms: _498  and  _499
REMARK                            x       y       z     vdW  Elec       q    Type
REMARK                         _______ _______ _______ _____ _____    ______ ____
ROOT
ATOM      1  O   HOH     1      36.141  50.887  41.154  0.00  0.00    +0.000 OA
ENDROOT
TORSDOF 0
REMARK  Name = ../refined-set-2016/4s1g/4s1g_pocket.pdb
REMARK  198 active torsions:
REMARK  status: ('A' for Active; 'I' for Inactive)
REMARK    1  A    between atoms: _1  and  _3
REMARK    2  A    between atoms: _3  and  _4
REMARK    3  A    between atoms: _3  and  _6
REMARK    4  A    between atoms: _6  and  _7
REMARK    5  A    between atoms: _12  and  _13
REMARK    6  A    between atoms: _15  and  _17
REMARK    7  A    between atoms: _17  and  _18
REMARK    8  A    between atoms: _17  and  _20
REMARK    9  A    between atoms: _20  and  _21
REMARK   10  A    between atoms: _24  and  _26
REMARK   11  A    between atoms: _26  and  _27
REMARK   12  A    between atoms: _26  and  _29
REMARK   13  A    between atoms: _29  and  _30
REMARK   14  A    between atoms: _30  and  _31
REMARK   15  A    between atoms: _36  and  _38
REMARK   16  A    between atoms: _38  and  _39
REMARK   17  A    between atoms: _38  and  _41
REMARK   18  A    between atoms: _41  and  _42
REMARK   19  A    between atoms: _47  and  _48
REMARK   20  A    between atoms: _50  and  _52
REMARK   21  A    between atoms: _52  and  _53
REMARK   22  A    between atoms: _52  and  _55
REMARK   23  A    between atoms: _55  and  _56
REMARK   24  A    between atoms: _61  and  _62
REMARK   25  A    between atoms: _64  and  _66
REMARK   26  A    between atoms: _66  and  _67
REMARK   27  A    between atoms: _66  and  _69
REMARK   28  A    between atoms: _72  and  _74
REMARK   29  A    between atoms: _74  and  _75
REMARK   30  A    between atoms: _74  and  _77
REMARK   31  A    between atoms: _77  and  _78
REMARK   32  A    between atoms: _84  and  _86
REMARK   33  A    between atoms: _86  and  _87
REMARK   34  A    between atoms: _86  and  _89
REMARK   35  A    between atoms: _89  and  _90
REMARK   36  A    between atoms: _93  and  _95
REMARK   37  A    between atoms: _95  and  _96
REMARK   38  A    between atoms: _95  and  _98
REMARK   39  A    between atoms: _98  and  _99
REMARK   40  A    between atoms: _102  and  _104
REMARK   41  A    between atoms: _104  and  _105
REMARK   42  A    between atoms: _107  and  _109
REMARK   43  A    between atoms: _109  and  _110
REMARK   44  A    between atoms: _109  and  _112
REMARK   45  A    between atoms: _112  and  _113
REMARK   46  A    between atoms: _115  and  _117
REMARK   47  A    between atoms: _117  and  _118
REMARK   48  A    between atoms: _117  and  _120
REMARK   49  A    between atoms: _120  and  _121
REMARK   50  A    between atoms: _123  and  _125
REMARK   51  A    between atoms: _125  and  _126
REMARK   52  A    between atoms: _125  and  _128
REMARK   53  A    between atoms: _128  and  _129
REMARK   54  A    between atoms: _134  and  _136
REMARK   55  A    between atoms: _136  and  _137
REMARK   56  A    between atoms: _136  and  _139
REMARK   57  A    between atoms: _139  and  _140
REMARK   58  A    between atoms: _150  and  _152
REMARK   59  A    between atoms: _152  and  _153
REMARK   60  A    between atoms: _152  and  _155
REMARK   61  A    between atoms: _155  and  _156
REMARK   62  A    between atoms: _159  and  _161
REMARK   63  A    between atoms: _161  and  _162
REMARK   64  A    between atoms: _161  and  _164
REMARK   65  A    between atoms: _164  and  _165
REMARK   66  A    between atoms: _165  and  _166
REMARK   67  A    between atoms: _166  and  _167
REMARK   68  A    between atoms: _176  and  _178
REMARK   69  A    between atoms: _178  and  _179
REMARK   70  A    between atoms: _178  and  _181
REMARK   71  A    between atoms: _181  and  _182
REMARK   72  A    between atoms: _187  and  _188
REMARK   73  A    between atoms: _190  and  _192
REMARK   74  A    between atoms: _192  and  _193
REMARK   75  A    between atoms: _192  and  _195
REMARK   76  A    between atoms: _195  and  _196
REMARK   77  A    between atoms: _198  and  _200
REMARK   78  A    between atoms: _200  and  _201
REMARK   79  A    between atoms: _200  and  _203
REMARK   80  A    between atoms: _203  and  _204
REMARK   81  A    between atoms: _207  and  _209
REMARK   82  A    between atoms: _209  and  _210
REMARK   83  A    between atoms: _212  and  _214
REMARK   84  A    between atoms: _214  and  _215
REMARK   85  A    between atoms: _214  and  _217
REMARK   86  A    between atoms: _221  and  _222
REMARK   87  A    between atoms: _227  and  _229
REMARK   88  A    between atoms: _229  and  _230
REMARK   89  A    between atoms: _233  and  _235
REMARK   90  A    between atoms: _235  and  _236
REMARK   91  A    between atoms: _235  and  _238
REMARK   92  A    between atoms: _238  and  _239
REMARK   93  A    between atoms: _243  and  _244
REMARK   94  A    between atoms: _249  and  _251
REMARK   95  A    between atoms: _251  and  _252
REMARK   96  A    between atoms: _251  and  _254
REMARK   97  A    between atoms: _254  and  _255
REMARK   98  A    between atoms: _261  and  _263
REMARK   99  A    between atoms: _263  and  _264
REMARK  100  A    between atoms: _263  and  _266
REMARK  101  A    between atoms: _266  and  _267
REMARK  102  A    between atoms: _267  and  _268
REMARK  103  A    between atoms: _270  and  _272
REMARK  104  A    between atoms: _272  and  _273
REMARK  105  A    between atoms: _272  and  _275
REMARK  106  A    between atoms: _275  and  _276
REMARK  107  A    between atoms: _279  and  _281
REMARK  108  A    between atoms: _281  and  _282
REMARK  109  A    between atoms: _285  and  _287
REMARK  110  A    between atoms: _287  and  _288
REMARK  111  A    between atoms: _287  and  _290
REMARK  112  A    between atoms: _290  and  _291
REMARK  113  A    between atoms: _291  and  _292
REMARK  114  A    between atoms: _295  and  _297
REMARK  115  A    between atoms: _297  and  _298
REMARK  116  A    between atoms: _297  and  _300
REMARK  117  A    between atoms: _300  and  _301
REMARK  118  A    between atoms: _307  and  _309
REMARK  119  A    between atoms: _309  and  _310
REMARK  120  A    between atoms: _312  and  _314
REMARK  121  A    between atoms: _314  and  _315
REMARK  122  A    between atoms: _314  and  _317
REMARK  123  A    between atoms: _320  and  _322
REMARK  124  A    between atoms: _322  and  _323
REMARK  125  A    between atoms: _322  and  _325
REMARK  126  A    between atoms: _328  and  _330
REMARK  127  A    between atoms: _330  and  _331
REMARK  128  A    between atoms: _333  and  _335
REMARK  129  A    between atoms: _335  and  _336
REMARK  130  A    between atoms: _335  and  _338
REMARK  131  A    between atoms: _338  and  _339
REMARK  132  A    between atoms: _339  and  _340
REMARK  133  A    between atoms: _342  and  _344
REMARK  134  A    between atoms: _344  and  _345
REMARK  135  A    between atoms: _344  and  _347
REMARK  136  A    between atoms: _347  and  _348
REMARK  137  A    between atoms: _353  and  _354
REMARK  138  A    between atoms: _356  and  _358
REMARK  139  A    between atoms: _358  and  _359
REMARK  140  A    between atoms: _358  and  _361
REMARK  141  A    between atoms: _361  and  _362
REMARK  142  A    between atoms: _365  and  _367
REMARK  143  A    between atoms: _367  and  _368
REMARK  144  A    between atoms: _367  and  _370
REMARK  145  A    between atoms: _373  and  _375
REMARK  146  A    between atoms: _375  and  _376
REMARK  147  A    between atoms: _375  and  _378
REMARK  148  A    between atoms: _378  and  _379
REMARK  149  A    between atoms: _382  and  _384
REMARK  150  A    between atoms: _384  and  _385
REMARK  151  A    between atoms: _384  and  _387
REMARK  152  A    between atoms: _387  and  _388
REMARK  153  A    between atoms: _391  and  _393
REMARK  154  A    between atoms: _393  and  _394
REMARK  155  A    between atoms: _396  and  _398
REMARK  156  A    between atoms: _398  and  _399
REMARK  157  A    between atoms: _402  and  _404
REMARK  158  A    between atoms: _404  and  _405
REMARK  159  A    between atoms: _404  and  _407
REMARK  160  A    between atoms: _407  and  _408
REMARK  161  A    between atoms: _410  and  _412
REMARK  162  A    between atoms: _412  and  _413
REMARK  163  A    between atoms: _412  and  _415
REMARK  164  A    between atoms: _415  and  _416
REMARK  165  A    between atoms: _421  and  _422
REMARK  166  A    between atoms: _424  and  _426
REMARK  167  A    between atoms: _426  and  _427
REMARK  168  A    between atoms: _426  and  _429
REMARK  169  A    between atoms: _429  and  _430
REMARK  170  A    between atoms: _433  and  _435
REMARK  171  A    between atoms: _435  and  _436
REMARK  172  A    between atoms: _435  and  _438
REMARK  173  A    between atoms: _438  and  _439
REMARK  174  A    between atoms: _441  and  _443
REMARK  175  A    between atoms: _443  and  _444
REMARK  176  A    between atoms: _446  and  _448
REMARK  177  A    between atoms: _448  and  _449
REMARK  178  A    between atoms: _448  and  _451
REMARK  179  A    between atoms: _451  and  _452
REMARK  180  A    between atoms: _457  and  _459
REMARK  181  A    between atoms: _459  and  _460
REMARK  182  A    between atoms: _463  and  _465
REMARK  183  A    between atoms: _465  and  _466
REMARK  184  A    between atoms: _465  and  _468
REMARK  185  A    between atoms: _468  and  _469
REMARK  186  A    between atoms: _469  and  _470
REMARK  187  A    between atoms: _472  and  _474
REMARK  188  A    between atoms: _474  and  _475
REMARK  189  A    between atoms: _474  and  _477
REMARK  190  A    between atoms: _477  and  _478
REMARK  191  A    between atoms: _481  and  _483
REMARK  192  A    between atoms: _483  and  _484
REMARK  193  A    between atoms: _483  and  _486
REMARK  194  A    between atoms: _486  and  _487
REMARK  195  A    between atoms: _490  and  _492
REMARK  196  A    between atoms: _492  and  _493
REMARK  197  A    between atoms: _496  and  _498
REMARK  198  A    between atoms: _498  and  _499
REMARK                            x       y       z     vdW  Elec       q    Type
REMARK                         _______ _______ _______ _____ _____    ______ ____
ROOT
ATOM      1  O   HOH     1      43.595  61.569  34.838  0.00  0.00    +0.000 OA
ENDROOT
TORSDOF 0
REMARK  Name = ../refined-set-2016/4s1g/4s1g_pocket.pdb
REMARK  198 active torsions:
REMARK  status: ('A' for Active; 'I' for Inactive)
REMARK    1  A    between atoms: _1  and  _3
REMARK    2  A    between atoms: _3  and  _4
REMARK    3  A    between atoms: _3  and  _6
REMARK    4  A    between atoms: _6  and  _7
REMARK    5  A    between atoms: _12  and  _13
REMARK    6  A    between atoms: _15  and  _17
REMARK    7  A    between atoms: _17  and  _18
REMARK    8  A    between atoms: _17  and  _20
REMARK    9  A    between atoms: _20  and  _21
REMARK   10  A    between atoms: _24  and  _26
REMARK   11  A    between atoms: _26  and  _27
REMARK   12  A    between atoms: _26  and  _29
REMARK   13  A    between atoms: _29  and  _30
REMARK   14  A    between atoms: _30  and  _31
REMARK   15  A    between atoms: _36  and  _38
REMARK   16  A    between atoms: _38  and  _39
REMARK   17  A    between atoms: _38  and  _41
REMARK   18  A    between atoms: _41  and  _42
REMARK   19  A    between atoms: _47  and  _48
REMARK   20  A    between atoms: _50  and  _52
REMARK   21  A    between atoms: _52  and  _53
REMARK   22  A    between atoms: _52  and  _55
REMARK   23  A    between atoms: _55  and  _56
REMARK   24  A    between atoms: _61  and  _62
REMARK   25  A    between atoms: _64  and  _66
REMARK   26  A    between atoms: _66  and  _67
REMARK   27  A    between atoms: _66  and  _69
REMARK   28  A    between atoms: _72  and  _74
REMARK   29  A    between atoms: _74  and  _75
REMARK   30  A    between atoms: _74  and  _77
REMARK   31  A    between atoms: _77  and  _78
REMARK   32  A    between atoms: _84  and  _86
REMARK   33  A    between atoms: _86  and  _87
REMARK   34  A    between atoms: _86  and  _89
REMARK   35  A    between atoms: _89  and  _90
REMARK   36  A    between atoms: _93  and  _95
REMARK   37  A    between atoms: _95  and  _96
REMARK   38  A    between atoms: _95  and  _98
REMARK   39  A    between atoms: _98  and  _99
REMARK   40  A    between atoms: _102  and  _104
REMARK   41  A    between atoms: _104  and  _105
REMARK   42  A    between atoms: _107  and  _109
REMARK   43  A    between atoms: _109  and  _110
REMARK   44  A    between atoms: _109  and  _112
REMARK   45  A    between atoms: _112  and  _113
REMARK   46  A    between atoms: _115  and  _117
REMARK   47  A    between atoms: _117  and  _118
REMARK   48  A    between atoms: _117  and  _120
REMARK   49  A    between atoms: _120  and  _121
REMARK   50  A    between atoms: _123  and  _125
REMARK   51  A    between atoms: _125  and  _126
REMARK   52  A    between atoms: _125  and  _128
REMARK   53  A    between atoms: _128  and  _129
REMARK   54  A    between atoms: _134  and  _136
REMARK   55  A    between atoms: _136  and  _137
REMARK   56  A    between atoms: _136  and  _139
REMARK   57  A    between atoms: _139  and  _140
REMARK   58  A    between atoms: _150  and  _152
REMARK   59  A    between atoms: _152  and  _153
REMARK   60  A    between atoms: _152  and  _155
REMARK   61  A    between atoms: _155  and  _156
REMARK   62  A    between atoms: _159  and  _161
REMARK   63  A    between atoms: _161  and  _162
REMARK   64  A    between atoms: _161  and  _164
REMARK   65  A    between atoms: _164  and  _165
REMARK   66  A    between atoms: _165  and  _166
REMARK   67  A    between atoms: _166  and  _167
REMARK   68  A    between atoms: _176  and  _178
REMARK   69  A    between atoms: _178  and  _179
REMARK   70  A    between atoms: _178  and  _181
REMARK   71  A    between atoms: _181  and  _182
REMARK   72  A    between atoms: _187  and  _188
REMARK   73  A    between atoms: _190  and  _192
REMARK   74  A    between atoms: _192  and  _193
REMARK   75  A    between atoms: _192  and  _195
REMARK   76  A    between atoms: _195  and  _196
REMARK   77  A    between atoms: _198  and  _200
REMARK   78  A    between atoms: _200  and  _201
REMARK   79  A    between atoms: _200  and  _203
REMARK   80  A    between atoms: _203  and  _204
REMARK   81  A    between atoms: _207  and  _209
REMARK   82  A    between atoms: _209  and  _210
REMARK   83  A    between atoms: _212  and  _214
REMARK   84  A    between atoms: _214  and  _215
REMARK   85  A    between atoms: _214  and  _217
REMARK   86  A    between atoms: _221  and  _222
REMARK   87  A    between atoms: _227  and  _229
REMARK   88  A    between atoms: _229  and  _230
REMARK   89  A    between atoms: _233  and  _235
REMARK   90  A    between atoms: _235  and  _236
REMARK   91  A    between atoms: _235  and  _238
REMARK   92  A    between atoms: _238  and  _239
REMARK   93  A    between atoms: _243  and  _244
REMARK   94  A    between atoms: _249  and  _251
REMARK   95  A    between atoms: _251  and  _252
REMARK   96  A    between atoms: _251  and  _254
REMARK   97  A    between atoms: _254  and  _255
REMARK   98  A    between atoms: _261  and  _263
REMARK   99  A    between atoms: _263  and  _264
REMARK  100  A    between atoms: _263  and  _266
REMARK  101  A    between atoms: _266  and  _267
REMARK  102  A    between atoms: _267  and  _268
REMARK  103  A    between atoms: _270  and  _272
REMARK  104  A    between atoms: _272  and  _273
REMARK  105  A    between atoms: _272  and  _275
REMARK  106  A    between atoms: _275  and  _276
REMARK  107  A    between atoms: _279  and  _281
REMARK  108  A    between atoms: _281  and  _282
REMARK  109  A    between atoms: _285  and  _287
REMARK  110  A    between atoms: _287  and  _288
REMARK  111  A    between atoms: _287  and  _290
REMARK  112  A    between atoms: _290  and  _291
REMARK  113  A    between atoms: _291  and  _292
REMARK  114  A    between atoms: _295  and  _297
REMARK  115  A    between atoms: _297  and  _298
REMARK  116  A    between atoms: _297  and  _300
REMARK  117  A    between atoms: _300  and  _301
REMARK  118  A    between atoms: _307  and  _309
REMARK  119  A    between atoms: _309  and  _310
REMARK  120  A    between atoms: _312  and  _314
REMARK  121  A    between atoms: _314  and  _315
REMARK  122  A    between atoms: _314  and  _317
REMARK  123  A    between atoms: _320  and  _322
REMARK  124  A    between atoms: _322  and  _323
REMARK  125  A    between atoms: _322  and  _325
REMARK  126  A    between atoms: _328  and  _330
REMARK  127  A    between atoms: _330  and  _331
REMARK  128  A    between atoms: _333  and  _335
REMARK  129  A    between atoms: _335  and  _336
REMARK  130  A    between atoms: _335  and  _338
REMARK  131  A    between atoms: _338  and  _339
REMARK  132  A    between atoms: _339  and  _340
REMARK  133  A    between atoms: _342  and  _344
REMARK  134  A    between atoms: _344  and  _345
REMARK  135  A    between atoms: _344  and  _347
REMARK  136  A    between atoms: _347  and  _348
REMARK  137  A    between atoms: _353  and  _354
REMARK  138  A    between atoms: _356  and  _358
REMARK  139  A    between atoms: _358  and  _359
REMARK  140  A    between atoms: _358  and  _361
REMARK  141  A    between atoms: _361  and  _362
REMARK  142  A    between atoms: _365  and  _367
REMARK  143  A    between atoms: _367  and  _368
REMARK  144  A    between atoms: _367  and  _370
REMARK  145  A    between atoms: _373  and  _375
REMARK  146  A    between atoms: _375  and  _376
REMARK  147  A    between atoms: _375  and  _378
REMARK  148  A    between atoms: _378  and  _379
REMARK  149  A    between atoms: _382  and  _384
REMARK  150  A    between atoms: _384  and  _385
REMARK  151  A    between atoms: _384  and  _387
REMARK  152  A    between atoms: _387  and  _388
REMARK  153  A    between atoms: _391  and  _393
REMARK  154  A    between atoms: _393  and  _394
REMARK  155  A    between atoms: _396  and  _398
REMARK  156  A    between atoms: _398  and  _399
REMARK  157  A    between atoms: _402  and  _404
REMARK  158  A    between atoms: _404  and  _405
REMARK  159  A    between atoms: _404  and  _407
REMARK  160  A    between atoms: _407  and  _408
REMARK  161  A    between atoms: _410  and  _412
REMARK  162  A    between atoms: _412  and  _413
REMARK  163  A    between atoms: _412  and  _415
REMARK  164  A    between atoms: _415  and  _416
REMARK  165  A    between atoms: _421  and  _422
REMARK  166  A    between atoms: _424  and  _426
REMARK  167  A    between atoms: _426  and  _427
REMARK  168  A    between atoms: _426  and  _429
REMARK  169  A    between atoms: _429  and  _430
REMARK  170  A    between atoms: _433  and  _435
REMARK  171  A    between atoms: _435  and  _436
REMARK  172  A    between atoms: _435  and  _438
REMARK  173  A    between atoms: _438  and  _439
REMARK  174  A    between atoms: _441  and  _443
REMARK  175  A    between atoms: _443  and  _444
REMARK  176  A    between atoms: _446  and  _448
REMARK  177  A    between atoms: _448  and  _449
REMARK  178  A    between atoms: _448  and  _451
REMARK  179  A    between atoms: _451  and  _452
REMARK  180  A    between atoms: _457  and  _459
REMARK  181  A    between atoms: _459  and  _460
REMARK  182  A    between atoms: _463  and  _465
REMARK  183  A    between atoms: _465  and  _466
REMARK  184  A    between atoms: _465  and  _468
REMARK  185  A    between atoms: _468  and  _469
REMARK  186  A    between atoms: _469  and  _470
REMARK  187  A    between atoms: _472  and  _474
REMARK  188  A    between atoms: _474  and  _475
REMARK  189  A    between atoms: _474  and  _477
REMARK  190  A    between atoms: _477  and  _478
REMARK  191  A    between atoms: _481  and  _483
REMARK  192  A    between atoms: _483  and  _484
REMARK  193  A    between atoms: _483  and  _486
REMARK  194  A    between atoms: _486  and  _487
REMARK  195  A    between atoms: _490  and  _492
REMARK  196  A    between atoms: _492  and  _493
REMARK  197  A    between atoms: _496  and  _498
REMARK  198  A    between atoms: _498  and  _499
REMARK                            x       y       z     vdW  Elec       q    Type
REMARK                         _______ _______ _______ _____ _____    ______ ____
ROOT
ATOM      1  O   HOH     1      34.808  58.470  33.859  0.00  0.00    +0.000 OA
ENDROOT
TORSDOF 0
REMARK  Name = ../refined-set-2016/4s1g/4s1g_pocket.pdb
REMARK  198 active torsions:
REMARK  status: ('A' for Active; 'I' for Inactive)
REMARK    1  A    between atoms: _1  and  _3
REMARK    2  A    between atoms: _3  and  _4
REMARK    3  A    between atoms: _3  and  _6
REMARK    4  A    between atoms: _6  and  _7
REMARK    5  A    between atoms: _12  and  _13
REMARK    6  A    between atoms: _15  and  _17
REMARK    7  A    between atoms: _17  and  _18
REMARK    8  A    between atoms: _17  and  _20
REMARK    9  A    between atoms: _20  and  _21
REMARK   10  A    between atoms: _24  and  _26
REMARK   11  A    between atoms: _26  and  _27
REMARK   12  A    between atoms: _26  and  _29
REMARK   13  A    between atoms: _29  and  _30
REMARK   14  A    between atoms: _30  and  _31
REMARK   15  A    between atoms: _36  and  _38
REMARK   16  A    between atoms: _38  and  _39
REMARK   17  A    between atoms: _38  and  _41
REMARK   18  A    between atoms: _41  and  _42
REMARK   19  A    between atoms: _47  and  _48
REMARK   20  A    between atoms: _50  and  _52
REMARK   21  A    between atoms: _52  and  _53
REMARK   22  A    between atoms: _52  and  _55
REMARK   23  A    between atoms: _55  and  _56
REMARK   24  A    between atoms: _61  and  _62
REMARK   25  A    between atoms: _64  and  _66
REMARK   26  A    between atoms: _66  and  _67
REMARK   27  A    between atoms: _66  and  _69
REMARK   28  A    between atoms: _72  and  _74
REMARK   29  A    between atoms: _74  and  _75
REMARK   30  A    between atoms: _74  and  _77
REMARK   31  A    between atoms: _77  and  _78
REMARK   32  A    between atoms: _84  and  _86
REMARK   33  A    between atoms: _86  and  _87
REMARK   34  A    between atoms: _86  and  _89
REMARK   35  A    between atoms: _89  and  _90
REMARK   36  A    between atoms: _93  and  _95
REMARK   37  A    between atoms: _95  and  _96
REMARK   38  A    between atoms: _95  and  _98
REMARK   39  A    between atoms: _98  and  _99
REMARK   40  A    between atoms: _102  and  _104
REMARK   41  A    between atoms: _104  and  _105
REMARK   42  A    between atoms: _107  and  _109
REMARK   43  A    between atoms: _109  and  _110
REMARK   44  A    between atoms: _109  and  _112
REMARK   45  A    between atoms: _112  and  _113
REMARK   46  A    between atoms: _115  and  _117
REMARK   47  A    between atoms: _117  and  _118
REMARK   48  A    between atoms: _117  and  _120
REMARK   49  A    between atoms: _120  and  _121
REMARK   50  A    between atoms: _123  and  _125
REMARK   51  A    between atoms: _125  and  _126
REMARK   52  A    between atoms: _125  and  _128
REMARK   53  A    between atoms: _128  and  _129
REMARK   54  A    between atoms: _134  and  _136
REMARK   55  A    between atoms: _136  and  _137
REMARK   56  A    between atoms: _136  and  _139
REMARK   57  A    between atoms: _139  and  _140
REMARK   58  A    between atoms: _150  and  _152
REMARK   59  A    between atoms: _152  and  _153
REMARK   60  A    between atoms: _152  and  _155
REMARK   61  A    between atoms: _155  and  _156
REMARK   62  A    between atoms: _159  and  _161
REMARK   63  A    between atoms: _161  and  _162
REMARK   64  A    between atoms: _161  and  _164
REMARK   65  A    between atoms: _164  and  _165
REMARK   66  A    between atoms: _165  and  _166
REMARK   67  A    between atoms: _166  and  _167
REMARK   68  A    between atoms: _176  and  _178
REMARK   69  A    between atoms: _178  and  _179
REMARK   70  A    between atoms: _178  and  _181
REMARK   71  A    between atoms: _181  and  _182
REMARK   72  A    between atoms: _187  and  _188
REMARK   73  A    between atoms: _190  and  _192
REMARK   74  A    between atoms: _192  and  _193
REMARK   75  A    between atoms: _192  and  _195
REMARK   76  A    between atoms: _195  and  _196
REMARK   77  A    between atoms: _198  and  _200
REMARK   78  A    between atoms: _200  and  _201
REMARK   79  A    between atoms: _200  and  _203
REMARK   80  A    between atoms: _203  and  _204
REMARK   81  A    between atoms: _207  and  _209
REMARK   82  A    between atoms: _209  and  _210
REMARK   83  A    between atoms: _212  and  _214
REMARK   84  A    between atoms: _214  and  _215
REMARK   85  A    between atoms: _214  and  _217
REMARK   86  A    between atoms: _221  and  _222
REMARK   87  A    between atoms: _227  and  _229
REMARK   88  A    between atoms: _229  and  _230
REMARK   89  A    between atoms: _233  and  _235
REMARK   90  A    between atoms: _235  and  _236
REMARK   91  A    between atoms: _235  and  _238
REMARK   92  A    between atoms: _238  and  _239
REMARK   93  A    between atoms: _243  and  _244
REMARK   94  A    between atoms: _249  and  _251
REMARK   95  A    between atoms: _251  and  _252
REMARK   96  A    between atoms: _251  and  _254
REMARK   97  A    between atoms: _254  and  _255
REMARK   98  A    between atoms: _261  and  _263
REMARK   99  A    between atoms: _263  and  _264
REMARK  100  A    between atoms: _263  and  _266
REMARK  101  A    between atoms: _266  and  _267
REMARK  102  A    between atoms: _267  and  _268
REMARK  103  A    between atoms: _270  and  _272
REMARK  104  A    between atoms: _272  and  _273
REMARK  105  A    between atoms: _272  and  _275
REMARK  106  A    between atoms: _275  and  _276
REMARK  107  A    between atoms: _279  and  _281
REMARK  108  A    between atoms: _281  and  _282
REMARK  109  A    between atoms: _285  and  _287
REMARK  110  A    between atoms: _287  and  _288
REMARK  111  A    between atoms: _287  and  _290
REMARK  112  A    between atoms: _290  and  _291
REMARK  113  A    between atoms: _291  and  _292
REMARK  114  A    between atoms: _295  and  _297
REMARK  115  A    between atoms: _297  and  _298
REMARK  116  A    between atoms: _297  and  _300
REMARK  117  A    between atoms: _300  and  _301
REMARK  118  A    between atoms: _307  and  _309
REMARK  119  A    between atoms: _309  and  _310
REMARK  120  A    between atoms: _312  and  _314
REMARK  121  A    between atoms: _314  and  _315
REMARK  122  A    between atoms: _314  and  _317
REMARK  123  A    between atoms: _320  and  _322
REMARK  124  A    between atoms: _322  and  _323
REMARK  125  A    between atoms: _322  and  _325
REMARK  126  A    between atoms: _328  and  _330
REMARK  127  A    between atoms: _330  and  _331
REMARK  128  A    between atoms: _333  and  _335
REMARK  129  A    between atoms: _335  and  _336
REMARK  130  A    between atoms: _335  and  _338
REMARK  131  A    between atoms: _338  and  _339
REMARK  132  A    between atoms: _339  and  _340
REMARK  133  A    between atoms: _342  and  _344
REMARK  134  A    between atoms: _344  and  _345
REMARK  135  A    between atoms: _344  and  _347
REMARK  136  A    between atoms: _347  and  _348
REMARK  137  A    between atoms: _353  and  _354
REMARK  138  A    between atoms: _356  and  _358
REMARK  139  A    between atoms: _358  and  _359
REMARK  140  A    between atoms: _358  and  _361
REMARK  141  A    between atoms: _361  and  _362
REMARK  142  A    between atoms: _365  and  _367
REMARK  143  A    between atoms: _367  and  _368
REMARK  144  A    between atoms: _367  and  _370
REMARK  145  A    between atoms: _373  and  _375
REMARK  146  A    between atoms: _375  and  _376
REMARK  147  A    between atoms: _375  and  _378
REMARK  148  A    between atoms: _378  and  _379
REMARK  149  A    between atoms: _382  and  _384
REMARK  150  A    between atoms: _384  and  _385
REMARK  151  A    between atoms: _384  and  _387
REMARK  152  A    between atoms: _387  and  _388
REMARK  153  A    between atoms: _391  and  _393
REMARK  154  A    between atoms: _393  and  _394
REMARK  155  A    between atoms: _396  and  _398
REMARK  156  A    between atoms: _398  and  _399
REMARK  157  A    between atoms: _402  and  _404
REMARK  158  A    between atoms: _404  and  _405
REMARK  159  A    between atoms: _404  and  _407
REMARK  160  A    between atoms: _407  and  _408
REMARK  161  A    between atoms: _410  and  _412
REMARK  162  A    between atoms: _412  and  _413
REMARK  163  A    between atoms: _412  and  _415
REMARK  164  A    between atoms: _415  and  _416
REMARK  165  A    between atoms: _421  and  _422
REMARK  166  A    between atoms: _424  and  _426
REMARK  167  A    between atoms: _426  and  _427
REMARK  168  A    between atoms: _426  and  _429
REMARK  169  A    between atoms: _429  and  _430
REMARK  170  A    between atoms: _433  and  _435
REMARK  171  A    between atoms: _435  and  _436
REMARK  172  A    between atoms: _435  and  _438
REMARK  173  A    between atoms: _438  and  _439
REMARK  174  A    between atoms: _441  and  _443
REMARK  175  A    between atoms: _443  and  _444
REMARK  176  A    between atoms: _446  and  _448
REMARK  177  A    between atoms: _448  and  _449
REMARK  178  A    between atoms: _448  and  _451
REMARK  179  A    between atoms: _451  and  _452
REMARK  180  A    between atoms: _457  and  _459
REMARK  181  A    between atoms: _459  and  _460
REMARK  182  A    between atoms: _463  and  _465
REMARK  183  A    between atoms: _465  and  _466
REMARK  184  A    between atoms: _465  and  _468
REMARK  185  A    between atoms: _468  and  _469
REMARK  186  A    between atoms: _469  and  _470
REMARK  187  A    between atoms: _472  and  _474
REMARK  188  A    between atoms: _474  and  _475
REMARK  189  A    between atoms: _474  and  _477
REMARK  190  A    between atoms: _477  and  _478
REMARK  191  A    between atoms: _481  and  _483
REMARK  192  A    between atoms: _483  and  _484
REMARK  193  A    between atoms: _483  and  _486
REMARK  194  A    between atoms: _486  and  _487
REMARK  195  A    between atoms: _490  and  _492
REMARK  196  A    between atoms: _492  and  _493
REMARK  197  A    between atoms: _496  and  _498
REMARK  198  A    between atoms: _498  and  _499
REMARK                            x       y       z     vdW  Elec       q    Type
REMARK                         _______ _______ _______ _____ _____    ______ ____
ROOT
ATOM      1  O   HOH     1      42.113  59.662  41.895  0.00  0.00    +0.000 OA
ENDROOT
TORSDOF 0
REMARK  Name = ../refined-set-2016/4s1g/4s1g_pocket.pdb
REMARK  198 active torsions:
REMARK  status: ('A' for Active; 'I' for Inactive)
REMARK    1  A    between atoms: _1  and  _3
REMARK    2  A    between atoms: _3  and  _4
REMARK    3  A    between atoms: _3  and  _6
REMARK    4  A    between atoms: _6  and  _7
REMARK    5  A    between atoms: _12  and  _13
REMARK    6  A    between atoms: _15  and  _17
REMARK    7  A    between atoms: _17  and  _18
REMARK    8  A    between atoms: _17  and  _20
REMARK    9  A    between atoms: _20  and  _21
REMARK   10  A    between atoms: _24  and  _26
REMARK   11  A    between atoms: _26  and  _27
REMARK   12  A    between atoms: _26  and  _29
REMARK   13  A    between atoms: _29  and  _30
REMARK   14  A    between atoms: _30  and  _31
REMARK   15  A    between atoms: _36  and  _38
REMARK   16  A    between atoms: _38  and  _39
REMARK   17  A    between atoms: _38  and  _41
REMARK   18  A    between atoms: _41  and  _42
REMARK   19  A    between atoms: _47  and  _48
REMARK   20  A    between atoms: _50  and  _52
REMARK   21  A    between atoms: _52  and  _53
REMARK   22  A    between atoms: _52  and  _55
REMARK   23  A    between atoms: _55  and  _56
REMARK   24  A    between atoms: _61  and  _62
REMARK   25  A    between atoms: _64  and  _66
REMARK   26  A    between atoms: _66  and  _67
REMARK   27  A    between atoms: _66  and  _69
REMARK   28  A    between atoms: _72  and  _74
REMARK   29  A    between atoms: _74  and  _75
REMARK   30  A    between atoms: _74  and  _77
REMARK   31  A    between atoms: _77  and  _78
REMARK   32  A    between atoms: _84  and  _86
REMARK   33  A    between atoms: _86  and  _87
REMARK   34  A    between atoms: _86  and  _89
REMARK   35  A    between atoms: _89  and  _90
REMARK   36  A    between atoms: _93  and  _95
REMARK   37  A    between atoms: _95  and  _96
REMARK   38  A    between atoms: _95  and  _98
REMARK   39  A    between atoms: _98  and  _99
REMARK   40  A    between atoms: _102  and  _104
REMARK   41  A    between atoms: _104  and  _105
REMARK   42  A    between atoms: _107  and  _109
REMARK   43  A    between atoms: _109  and  _110
REMARK   44  A    between atoms: _109  and  _112
REMARK   45  A    between atoms: _112  and  _113
REMARK   46  A    between atoms: _115  and  _117
REMARK   47  A    between atoms: _117  and  _118
REMARK   48  A    between atoms: _117  and  _120
REMARK   49  A    between atoms: _120  and  _121
REMARK   50  A    between atoms: _123  and  _125
REMARK   51  A    between atoms: _125  and  _126
REMARK   52  A    between atoms: _125  and  _128
REMARK   53  A    between atoms: _128  and  _129
REMARK   54  A    between atoms: _134  and  _136
REMARK   55  A    between atoms: _136  and  _137
REMARK   56  A    between atoms: _136  and  _139
REMARK   57  A    between atoms: _139  and  _140
REMARK   58  A    between atoms: _150  and  _152
REMARK   59  A    between atoms: _152  and  _153
REMARK   60  A    between atoms: _152  and  _155
REMARK   61  A    between atoms: _155  and  _156
REMARK   62  A    between atoms: _159  and  _161
REMARK   63  A    between atoms: _161  and  _162
REMARK   64  A    between atoms: _161  and  _164
REMARK   65  A    between atoms: _164  and  _165
REMARK   66  A    between atoms: _165  and  _166
REMARK   67  A    between atoms: _166  and  _167
REMARK   68  A    between atoms: _176  and  _178
REMARK   69  A    between atoms: _178  and  _179
REMARK   70  A    between atoms: _178  and  _181
REMARK   71  A    between atoms: _181  and  _182
REMARK   72  A    between atoms: _187  and  _188
REMARK   73  A    between atoms: _190  and  _192
REMARK   74  A    between atoms: _192  and  _193
REMARK   75  A    between atoms: _192  and  _195
REMARK   76  A    between atoms: _195  and  _196
REMARK   77  A    between atoms: _198  and  _200
REMARK   78  A    between atoms: _200  and  _201
REMARK   79  A    between atoms: _200  and  _203
REMARK   80  A    between atoms: _203  and  _204
REMARK   81  A    between atoms: _207  and  _209
REMARK   82  A    between atoms: _209  and  _210
REMARK   83  A    between atoms: _212  and  _214
REMARK   84  A    between atoms: _214  and  _215
REMARK   85  A    between atoms: _214  and  _217
REMARK   86  A    between atoms: _221  and  _222
REMARK   87  A    between atoms: _227  and  _229
REMARK   88  A    between atoms: _229  and  _230
REMARK   89  A    between atoms: _233  and  _235
REMARK   90  A    between atoms: _235  and  _236
REMARK   91  A    between atoms: _235  and  _238
REMARK   92  A    between atoms: _238  and  _239
REMARK   93  A    between atoms: _243  and  _244
REMARK   94  A    between atoms: _249  and  _251
REMARK   95  A    between atoms: _251  and  _252
REMARK   96  A    between atoms: _251  and  _254
REMARK   97  A    between atoms: _254  and  _255
REMARK   98  A    between atoms: _261  and  _263
REMARK   99  A    between atoms: _263  and  _264
REMARK  100  A    between atoms: _263  and  _266
REMARK  101  A    between atoms: _266  and  _267
REMARK  102  A    between atoms: _267  and  _268
REMARK  103  A    between atoms: _270  and  _272
REMARK  104  A    between atoms: _272  and  _273
REMARK  105  A    between atoms: _272  and  _275
REMARK  106  A    between atoms: _275  and  _276
REMARK  107  A    between atoms: _279  and  _281
REMARK  108  A    between atoms: _281  and  _282
REMARK  109  A    between atoms: _285  and  _287
REMARK  110  A    between atoms: _287  and  _288
REMARK  111  A    between atoms: _287  and  _290
REMARK  112  A    between atoms: _290  and  _291
REMARK  113  A    between atoms: _291  and  _292
REMARK  114  A    between atoms: _295  and  _297
REMARK  115  A    between atoms: _297  and  _298
REMARK  116  A    between atoms: _297  and  _300
REMARK  117  A    between atoms: _300  and  _301
REMARK  118  A    between atoms: _307  and  _309
REMARK  119  A    between atoms: _309  and  _310
REMARK  120  A    between atoms: _312  and  _314
REMARK  121  A    between atoms: _314  and  _315
REMARK  122  A    between atoms: _314  and  _317
REMARK  123  A    between atoms: _320  and  _322
REMARK  124  A    between atoms: _322  and  _323
REMARK  125  A    between atoms: _322  and  _325
REMARK  126  A    between atoms: _328  and  _330
REMARK  127  A    between atoms: _330  and  _331
REMARK  128  A    between atoms: _333  and  _335
REMARK  129  A    between atoms: _335  and  _336
REMARK  130  A    between atoms: _335  and  _338
REMARK  131  A    between atoms: _338  and  _339
REMARK  132  A    between atoms: _339  and  _340
REMARK  133  A    between atoms: _342  and  _344
REMARK  134  A    between atoms: _344  and  _345
REMARK  135  A    between atoms: _344  and  _347
REMARK  136  A    between atoms: _347  and  _348
REMARK  137  A    between atoms: _353  and  _354
REMARK  138  A    between atoms: _356  and  _358
REMARK  139  A    between atoms: _358  and  _359
REMARK  140  A    between atoms: _358  and  _361
REMARK  141  A    between atoms: _361  and  _362
REMARK  142  A    between atoms: _365  and  _367
REMARK  143  A    between atoms: _367  and  _368
REMARK  144  A    between atoms: _367  and  _370
REMARK  145  A    between atoms: _373  and  _375
REMARK  146  A    between atoms: _375  and  _376
REMARK  147  A    between atoms: _375  and  _378
REMARK  148  A    between atoms: _378  and  _379
REMARK  149  A    between atoms: _382  and  _384
REMARK  150  A    between atoms: _384  and  _385
REMARK  151  A    between atoms: _384  and  _387
REMARK  152  A    between atoms: _387  and  _388
REMARK  153  A    between atoms: _391  and  _393
REMARK  154  A    between atoms: _393  and  _394
REMARK  155  A    between atoms: _396  and  _398
REMARK  156  A    between atoms: _398  and  _399
REMARK  157  A    between atoms: _402  and  _404
REMARK  158  A    between atoms: _404  and  _405
REMARK  159  A    between atoms: _404  and  _407
REMARK  160  A    between atoms: _407  and  _408
REMARK  161  A    between atoms: _410  and  _412
REMARK  162  A    between atoms: _412  and  _413
REMARK  163  A    between atoms: _412  and  _415
REMARK  164  A    between atoms: _415  and  _416
REMARK  165  A    between atoms: _421  and  _422
REMARK  166  A    between atoms: _424  and  _426
REMARK  167  A    between atoms: _426  and  _427
REMARK  168  A    between atoms: _426  and  _429
REMARK  169  A    between atoms: _429  and  _430
REMARK  170  A    between atoms: _433  and  _435
REMARK  171  A    between atoms: _435  and  _436
REMARK  172  A    between atoms: _435  and  _438
REMARK  173  A    between atoms: _438  and  _439
REMARK  174  A    between atoms: _441  and  _443
REMARK  175  A    between atoms: _443  and  _444
REMARK  176  A    between atoms: _446  and  _448
REMARK  177  A    between atoms: _448  and  _449
REMARK  178  A    between atoms: _448  and  _451
REMARK  179  A    between atoms: _451  and  _452
REMARK  180  A    between atoms: _457  and  _459
REMARK  181  A    between atoms: _459  and  _460
REMARK  182  A    between atoms: _463  and  _465
REMARK  183  A    between atoms: _465  and  _466
REMARK  184  A    between atoms: _465  and  _468
REMARK  185  A    between atoms: _468  and  _469
REMARK  186  A    between atoms: _469  and  _470
REMARK  187  A    between atoms: _472  and  _474
REMARK  188  A    between atoms: _474  and  _475
REMARK  189  A    between atoms: _474  and  _477
REMARK  190  A    between atoms: _477  and  _478
REMARK  191  A    between atoms: _481  and  _483
REMARK  192  A    between atoms: _483  and  _484
REMARK  193  A    between atoms: _483  and  _486
REMARK  194  A    between atoms: _486  and  _487
REMARK  195  A    between atoms: _490  and  _492
REMARK  196  A    between atoms: _492  and  _493
REMARK  197  A    between atoms: _496  and  _498
REMARK  198  A    between atoms: _498  and  _499
REMARK                            x       y       z     vdW  Elec       q    Type
REMARK                         _______ _______ _______ _____ _____    ______ ____
ROOT
ATOM      1  O   HOH     1      41.802  61.811  45.384  0.00  0.00    +0.000 OA
ENDROOT
TORSDOF 0
REMARK  Name = ../refined-set-2016/4s1g/4s1g_pocket.pdb
REMARK  198 active torsions:
REMARK  status: ('A' for Active; 'I' for Inactive)
REMARK    1  A    between atoms: _1  and  _3
REMARK    2  A    between atoms: _3  and  _4
REMARK    3  A    between atoms: _3  and  _6
REMARK    4  A    between atoms: _6  and  _7
REMARK    5  A    between atoms: _12  and  _13
REMARK    6  A    between atoms: _15  and  _17
REMARK    7  A    between atoms: _17  and  _18
REMARK    8  A    between atoms: _17  and  _20
REMARK    9  A    between atoms: _20  and  _21
REMARK   10  A    between atoms: _24  and  _26
REMARK   11  A    between atoms: _26  and  _27
REMARK   12  A    between atoms: _26  and  _29
REMARK   13  A    between atoms: _29  and  _30
REMARK   14  A    between atoms: _30  and  _31
REMARK   15  A    between atoms: _36  and  _38
REMARK   16  A    between atoms: _38  and  _39
REMARK   17  A    between atoms: _38  and  _41
REMARK   18  A    between atoms: _41  and  _42
REMARK   19  A    between atoms: _47  and  _48
REMARK   20  A    between atoms: _50  and  _52
REMARK   21  A    between atoms: _52  and  _53
REMARK   22  A    between atoms: _52  and  _55
REMARK   23  A    between atoms: _55  and  _56
REMARK   24  A    between atoms: _61  and  _62
REMARK   25  A    between atoms: _64  and  _66
REMARK   26  A    between atoms: _66  and  _67
REMARK   27  A    between atoms: _66  and  _69
REMARK   28  A    between atoms: _72  and  _74
REMARK   29  A    between atoms: _74  and  _75
REMARK   30  A    between atoms: _74  and  _77
REMARK   31  A    between atoms: _77  and  _78
REMARK   32  A    between atoms: _84  and  _86
REMARK   33  A    between atoms: _86  and  _87
REMARK   34  A    between atoms: _86  and  _89
REMARK   35  A    between atoms: _89  and  _90
REMARK   36  A    between atoms: _93  and  _95
REMARK   37  A    between atoms: _95  and  _96
REMARK   38  A    between atoms: _95  and  _98
REMARK   39  A    between atoms: _98  and  _99
REMARK   40  A    between atoms: _102  and  _104
REMARK   41  A    between atoms: _104  and  _105
REMARK   42  A    between atoms: _107  and  _109
REMARK   43  A    between atoms: _109  and  _110
REMARK   44  A    between atoms: _109  and  _112
REMARK   45  A    between atoms: _112  and  _113
REMARK   46  A    between atoms: _115  and  _117
REMARK   47  A    between atoms: _117  and  _118
REMARK   48  A    between atoms: _117  and  _120
REMARK   49  A    between atoms: _120  and  _121
REMARK   50  A    between atoms: _123  and  _125
REMARK   51  A    between atoms: _125  and  _126
REMARK   52  A    between atoms: _125  and  _128
REMARK   53  A    between atoms: _128  and  _129
REMARK   54  A    between atoms: _134  and  _136
REMARK   55  A    between atoms: _136  and  _137
REMARK   56  A    between atoms: _136  and  _139
REMARK   57  A    between atoms: _139  and  _140
REMARK   58  A    between atoms: _150  and  _152
REMARK   59  A    between atoms: _152  and  _153
REMARK   60  A    between atoms: _152  and  _155
REMARK   61  A    between atoms: _155  and  _156
REMARK   62  A    between atoms: _159  and  _161
REMARK   63  A    between atoms: _161  and  _162
REMARK   64  A    between atoms: _161  and  _164
REMARK   65  A    between atoms: _164  and  _165
REMARK   66  A    between atoms: _165  and  _166
REMARK   67  A    between atoms: _166  and  _167
REMARK   68  A    between atoms: _176  and  _178
REMARK   69  A    between atoms: _178  and  _179
REMARK   70  A    between atoms: _178  and  _181
REMARK   71  A    between atoms: _181  and  _182
REMARK   72  A    between atoms: _187  and  _188
REMARK   73  A    between atoms: _190  and  _192
REMARK   74  A    between atoms: _192  and  _193
REMARK   75  A    between atoms: _192  and  _195
REMARK   76  A    between atoms: _195  and  _196
REMARK   77  A    between atoms: _198  and  _200
REMARK   78  A    between atoms: _200  and  _201
REMARK   79  A    between atoms: _200  and  _203
REMARK   80  A    between atoms: _203  and  _204
REMARK   81  A    between atoms: _207  and  _209
REMARK   82  A    between atoms: _209  and  _210
REMARK   83  A    between atoms: _212  and  _214
REMARK   84  A    between atoms: _214  and  _215
REMARK   85  A    between atoms: _214  and  _217
REMARK   86  A    between atoms: _221  and  _222
REMARK   87  A    between atoms: _227  and  _229
REMARK   88  A    between atoms: _229  and  _230
REMARK   89  A    between atoms: _233  and  _235
REMARK   90  A    between atoms: _235  and  _236
REMARK   91  A    between atoms: _235  and  _238
REMARK   92  A    between atoms: _238  and  _239
REMARK   93  A    between atoms: _243  and  _244
REMARK   94  A    between atoms: _249  and  _251
REMARK   95  A    between atoms: _251  and  _252
REMARK   96  A    between atoms: _251  and  _254
REMARK   97  A    between atoms: _254  and  _255
REMARK   98  A    between atoms: _261  and  _263
REMARK   99  A    between atoms: _263  and  _264
REMARK  100  A    between atoms: _263  and  _266
REMARK  101  A    between atoms: _266  and  _267
REMARK  102  A    between atoms: _267  and  _268
REMARK  103  A    between atoms: _270  and  _272
REMARK  104  A    between atoms: _272  and  _273
REMARK  105  A    between atoms: _272  and  _275
REMARK  106  A    between atoms: _275  and  _276
REMARK  107  A    between atoms: _279  and  _281
REMARK  108  A    between atoms: _281  and  _282
REMARK  109  A    between atoms: _285  and  _287
REMARK  110  A    between atoms: _287  and  _288
REMARK  111  A    between atoms: _287  and  _290
REMARK  112  A    between atoms: _290  and  _291
REMARK  113  A    between atoms: _291  and  _292
REMARK  114  A    between atoms: _295  and  _297
REMARK  115  A    between atoms: _297  and  _298
REMARK  116  A    between atoms: _297  and  _300
REMARK  117  A    between atoms: _300  and  _301
REMARK  118  A    between atoms: _307  and  _309
REMARK  119  A    between atoms: _309  and  _310
REMARK  120  A    between atoms: _312  and  _314
REMARK  121  A    between atoms: _314  and  _315
REMARK  122  A    between atoms: _314  and  _317
REMARK  123  A    between atoms: _320  and  _322
REMARK  124  A    between atoms: _322  and  _323
REMARK  125  A    between atoms: _322  and  _325
REMARK  126  A    between atoms: _328  and  _330
REMARK  127  A    between atoms: _330  and  _331
REMARK  128  A    between atoms: _333  and  _335
REMARK  129  A    between atoms: _335  and  _336
REMARK  130  A    between atoms: _335  and  _338
REMARK  131  A    between atoms: _338  and  _339
REMARK  132  A    between atoms: _339  and  _340
REMARK  133  A    between atoms: _342  and  _344
REMARK  134  A    between atoms: _344  and  _345
REMARK  135  A    between atoms: _344  and  _347
REMARK  136  A    between atoms: _347  and  _348
REMARK  137  A    between atoms: _353  and  _354
REMARK  138  A    between atoms: _356  and  _358
REMARK  139  A    between atoms: _358  and  _359
REMARK  140  A    between atoms: _358  and  _361
REMARK  141  A    between atoms: _361  and  _362
REMARK  142  A    between atoms: _365  and  _367
REMARK  143  A    between atoms: _367  and  _368
REMARK  144  A    between atoms: _367  and  _370
REMARK  145  A    between atoms: _373  and  _375
REMARK  146  A    between atoms: _375  and  _376
REMARK  147  A    between atoms: _375  and  _378
REMARK  148  A    between atoms: _378  and  _379
REMARK  149  A    between atoms: _382  and  _384
REMARK  150  A    between atoms: _384  and  _385
REMARK  151  A    between atoms: _384  and  _387
REMARK  152  A    between atoms: _387  and  _388
REMARK  153  A    between atoms: _391  and  _393
REMARK  154  A    between atoms: _393  and  _394
REMARK  155  A    between atoms: _396  and  _398
REMARK  156  A    between atoms: _398  and  _399
REMARK  157  A    between atoms: _402  and  _404
REMARK  158  A    between atoms: _404  and  _405
REMARK  159  A    between atoms: _404  and  _407
REMARK  160  A    between atoms: _407  and  _408
REMARK  161  A    between atoms: _410  and  _412
REMARK  162  A    between atoms: _412  and  _413
REMARK  163  A    between atoms: _412  and  _415
REMARK  164  A    between atoms: _415  and  _416
REMARK  165  A    between atoms: _421  and  _422
REMARK  166  A    between atoms: _424  and  _426
REMARK  167  A    between atoms: _426  and  _427
REMARK  168  A    between atoms: _426  and  _429
REMARK  169  A    between atoms: _429  and  _430
REMARK  170  A    between atoms: _433  and  _435
REMARK  171  A    between atoms: _435  and  _436
REMARK  172  A    between atoms: _435  and  _438
REMARK  173  A    between atoms: _438  and  _439
REMARK  174  A    between atoms: _441  and  _443
REMARK  175  A    between atoms: _443  and  _444
REMARK  176  A    between atoms: _446  and  _448
REMARK  177  A    between atoms: _448  and  _449
REMARK  178  A    between atoms: _448  and  _451
REMARK  179  A    between atoms: _451  and  _452
REMARK  180  A    between atoms: _457  and  _459
REMARK  181  A    between atoms: _459  and  _460
REMARK  182  A    between atoms: _463  and  _465
REMARK  183  A    between atoms: _465  and  _466
REMARK  184  A    between atoms: _465  and  _468
REMARK  185  A    between atoms: _468  and  _469
REMARK  186  A    between atoms: _469  and  _470
REMARK  187  A    between atoms: _472  and  _474
REMARK  188  A    between atoms: _474  and  _475
REMARK  189  A    between atoms: _474  and  _477
REMARK  190  A    between atoms: _477  and  _478
REMARK  191  A    between atoms: _481  and  _483
REMARK  192  A    between atoms: _483  and  _484
REMARK  193  A    between atoms: _483  and  _486
REMARK  194  A    between atoms: _486  and  _487
REMARK  195  A    between atoms: _490  and  _492
REMARK  196  A    between atoms: _492  and  _493
REMARK  197  A    between atoms: _496  and  _498
REMARK  198  A    between atoms: _498  and  _499
REMARK                            x       y       z     vdW  Elec       q    Type
REMARK                         _______ _______ _______ _____ _____    ______ ____
ROOT
ATOM      1  O   HOH     1      45.838  61.648  40.890  0.00  0.00    +0.000 OA
ENDROOT
TORSDOF 0
REMARK  Name = ../refined-set-2016/4s1g/4s1g_pocket.pdb
REMARK  198 active torsions:
REMARK  status: ('A' for Active; 'I' for Inactive)
REMARK    1  A    between atoms: _1  and  _3
REMARK    2  A    between atoms: _3  and  _4
REMARK    3  A    between atoms: _3  and  _6
REMARK    4  A    between atoms: _6  and  _7
REMARK    5  A    between atoms: _12  and  _13
REMARK    6  A    between atoms: _15  and  _17
REMARK    7  A    between atoms: _17  and  _18
REMARK    8  A    between atoms: _17  and  _20
REMARK    9  A    between atoms: _20  and  _21
REMARK   10  A    between atoms: _24  and  _26
REMARK   11  A    between atoms: _26  and  _27
REMARK   12  A    between atoms: _26  and  _29
REMARK   13  A    between atoms: _29  and  _30
REMARK   14  A    between atoms: _30  and  _31
REMARK   15  A    between atoms: _36  and  _38
REMARK   16  A    between atoms: _38  and  _39
REMARK   17  A    between atoms: _38  and  _41
REMARK   18  A    between atoms: _41  and  _42
REMARK   19  A    between atoms: _47  and  _48
REMARK   20  A    between atoms: _50  and  _52
REMARK   21  A    between atoms: _52  and  _53
REMARK   22  A    between atoms: _52  and  _55
REMARK   23  A    between atoms: _55  and  _56
REMARK   24  A    between atoms: _61  and  _62
REMARK   25  A    between atoms: _64  and  _66
REMARK   26  A    between atoms: _66  and  _67
REMARK   27  A    between atoms: _66  and  _69
REMARK   28  A    between atoms: _72  and  _74
REMARK   29  A    between atoms: _74  and  _75
REMARK   30  A    between atoms: _74  and  _77
REMARK   31  A    between atoms: _77  and  _78
REMARK   32  A    between atoms: _84  and  _86
REMARK   33  A    between atoms: _86  and  _87
REMARK   34  A    between atoms: _86  and  _89
REMARK   35  A    between atoms: _89  and  _90
REMARK   36  A    between atoms: _93  and  _95
REMARK   37  A    between atoms: _95  and  _96
REMARK   38  A    between atoms: _95  and  _98
REMARK   39  A    between atoms: _98  and  _99
REMARK   40  A    between atoms: _102  and  _104
REMARK   41  A    between atoms: _104  and  _105
REMARK   42  A    between atoms: _107  and  _109
REMARK   43  A    between atoms: _109  and  _110
REMARK   44  A    between atoms: _109  and  _112
REMARK   45  A    between atoms: _112  and  _113
REMARK   46  A    between atoms: _115  and  _117
REMARK   47  A    between atoms: _117  and  _118
REMARK   48  A    between atoms: _117  and  _120
REMARK   49  A    between atoms: _120  and  _121
REMARK   50  A    between atoms: _123  and  _125
REMARK   51  A    between atoms: _125  and  _126
REMARK   52  A    between atoms: _125  and  _128
REMARK   53  A    between atoms: _128  and  _129
REMARK   54  A    between atoms: _134  and  _136
REMARK   55  A    between atoms: _136  and  _137
REMARK   56  A    between atoms: _136  and  _139
REMARK   57  A    between atoms: _139  and  _140
REMARK   58  A    between atoms: _150  and  _152
REMARK   59  A    between atoms: _152  and  _153
REMARK   60  A    between atoms: _152  and  _155
REMARK   61  A    between atoms: _155  and  _156
REMARK   62  A    between atoms: _159  and  _161
REMARK   63  A    between atoms: _161  and  _162
REMARK   64  A    between atoms: _161  and  _164
REMARK   65  A    between atoms: _164  and  _165
REMARK   66  A    between atoms: _165  and  _166
REMARK   67  A    between atoms: _166  and  _167
REMARK   68  A    between atoms: _176  and  _178
REMARK   69  A    between atoms: _178  and  _179
REMARK   70  A    between atoms: _178  and  _181
REMARK   71  A    between atoms: _181  and  _182
REMARK   72  A    between atoms: _187  and  _188
REMARK   73  A    between atoms: _190  and  _192
REMARK   74  A    between atoms: _192  and  _193
REMARK   75  A    between atoms: _192  and  _195
REMARK   76  A    between atoms: _195  and  _196
REMARK   77  A    between atoms: _198  and  _200
REMARK   78  A    between atoms: _200  and  _201
REMARK   79  A    between atoms: _200  and  _203
REMARK   80  A    between atoms: _203  and  _204
REMARK   81  A    between atoms: _207  and  _209
REMARK   82  A    between atoms: _209  and  _210
REMARK   83  A    between atoms: _212  and  _214
REMARK   84  A    between atoms: _214  and  _215
REMARK   85  A    between atoms: _214  and  _217
REMARK   86  A    between atoms: _221  and  _222
REMARK   87  A    between atoms: _227  and  _229
REMARK   88  A    between atoms: _229  and  _230
REMARK   89  A    between atoms: _233  and  _235
REMARK   90  A    between atoms: _235  and  _236
REMARK   91  A    between atoms: _235  and  _238
REMARK   92  A    between atoms: _238  and  _239
REMARK   93  A    between atoms: _243  and  _244
REMARK   94  A    between atoms: _249  and  _251
REMARK   95  A    between atoms: _251  and  _252
REMARK   96  A    between atoms: _251  and  _254
REMARK   97  A    between atoms: _254  and  _255
REMARK   98  A    between atoms: _261  and  _263
REMARK   99  A    between atoms: _263  and  _264
REMARK  100  A    between atoms: _263  and  _266
REMARK  101  A    between atoms: _266  and  _267
REMARK  102  A    between atoms: _267  and  _268
REMARK  103  A    between atoms: _270  and  _272
REMARK  104  A    between atoms: _272  and  _273
REMARK  105  A    between atoms: _272  and  _275
REMARK  106  A    between atoms: _275  and  _276
REMARK  107  A    between atoms: _279  and  _281
REMARK  108  A    between atoms: _281  and  _282
REMARK  109  A    between atoms: _285  and  _287
REMARK  110  A    between atoms: _287  and  _288
REMARK  111  A    between atoms: _287  and  _290
REMARK  112  A    between atoms: _290  and  _291
REMARK  113  A    between atoms: _291  and  _292
REMARK  114  A    between atoms: _295  and  _297
REMARK  115  A    between atoms: _297  and  _298
REMARK  116  A    between atoms: _297  and  _300
REMARK  117  A    between atoms: _300  and  _301
REMARK  118  A    between atoms: _307  and  _309
REMARK  119  A    between atoms: _309  and  _310
REMARK  120  A    between atoms: _312  and  _314
REMARK  121  A    between atoms: _314  and  _315
REMARK  122  A    between atoms: _314  and  _317
REMARK  123  A    between atoms: _320  and  _322
REMARK  124  A    between atoms: _322  and  _323
REMARK  125  A    between atoms: _322  and  _325
REMARK  126  A    between atoms: _328  and  _330
REMARK  127  A    between atoms: _330  and  _331
REMARK  128  A    between atoms: _333  and  _335
REMARK  129  A    between atoms: _335  and  _336
REMARK  130  A    between atoms: _335  and  _338
REMARK  131  A    between atoms: _338  and  _339
REMARK  132  A    between atoms: _339  and  _340
REMARK  133  A    between atoms: _342  and  _344
REMARK  134  A    between atoms: _344  and  _345
REMARK  135  A    between atoms: _344  and  _347
REMARK  136  A    between atoms: _347  and  _348
REMARK  137  A    between atoms: _353  and  _354
REMARK  138  A    between atoms: _356  and  _358
REMARK  139  A    between atoms: _358  and  _359
REMARK  140  A    between atoms: _358  and  _361
REMARK  141  A    between atoms: _361  and  _362
REMARK  142  A    between atoms: _365  and  _367
REMARK  143  A    between atoms: _367  and  _368
REMARK  144  A    between atoms: _367  and  _370
REMARK  145  A    between atoms: _373  and  _375
REMARK  146  A    between atoms: _375  and  _376
REMARK  147  A    between atoms: _375  and  _378
REMARK  148  A    between atoms: _378  and  _379
REMARK  149  A    between atoms: _382  and  _384
REMARK  150  A    between atoms: _384  and  _385
REMARK  151  A    between atoms: _384  and  _387
REMARK  152  A    between atoms: _387  and  _388
REMARK  153  A    between atoms: _391  and  _393
REMARK  154  A    between atoms: _393  and  _394
REMARK  155  A    between atoms: _396  and  _398
REMARK  156  A    between atoms: _398  and  _399
REMARK  157  A    between atoms: _402  and  _404
REMARK  158  A    between atoms: _404  and  _405
REMARK  159  A    between atoms: _404  and  _407
REMARK  160  A    between atoms: _407  and  _408
REMARK  161  A    between atoms: _410  and  _412
REMARK  162  A    between atoms: _412  and  _413
REMARK  163  A    between atoms: _412  and  _415
REMARK  164  A    between atoms: _415  and  _416
REMARK  165  A    between atoms: _421  and  _422
REMARK  166  A    between atoms: _424  and  _426
REMARK  167  A    between atoms: _426  and  _427
REMARK  168  A    between atoms: _426  and  _429
REMARK  169  A    between atoms: _429  and  _430
REMARK  170  A    between atoms: _433  and  _435
REMARK  171  A    between atoms: _435  and  _436
REMARK  172  A    between atoms: _435  and  _438
REMARK  173  A    between atoms: _438  and  _439
REMARK  174  A    between atoms: _441  and  _443
REMARK  175  A    between atoms: _443  and  _444
REMARK  176  A    between atoms: _446  and  _448
REMARK  177  A    between atoms: _448  and  _449
REMARK  178  A    between atoms: _448  and  _451
REMARK  179  A    between atoms: _451  and  _452
REMARK  180  A    between atoms: _457  and  _459
REMARK  181  A    between atoms: _459  and  _460
REMARK  182  A    between atoms: _463  and  _465
REMARK  183  A    between atoms: _465  and  _466
REMARK  184  A    between atoms: _465  and  _468
REMARK  185  A    between atoms: _468  and  _469
REMARK  186  A    between atoms: _469  and  _470
REMARK  187  A    between atoms: _472  and  _474
REMARK  188  A    between atoms: _474  and  _475
REMARK  189  A    between atoms: _474  and  _477
REMARK  190  A    between atoms: _477  and  _478
REMARK  191  A    between atoms: _481  and  _483
REMARK  192  A    between atoms: _483  and  _484
REMARK  193  A    between atoms: _483  and  _486
REMARK  194  A    between atoms: _486  and  _487
REMARK  195  A    between atoms: _490  and  _492
REMARK  196  A    between atoms: _492  and  _493
REMARK  197  A    between atoms: _496  and  _498
REMARK  198  A    between atoms: _498  and  _499
REMARK                            x       y       z     vdW  Elec       q    Type
REMARK                         _______ _______ _______ _____ _____    ______ ____
ROOT
ATOM      1  O   HOH     1      43.005  57.058  51.555  0.00  0.00    +0.000 OA
ENDROOT
TORSDOF 0
REMARK  Name = ../refined-set-2016/4s1g/4s1g_pocket.pdb
REMARK  198 active torsions:
REMARK  status: ('A' for Active; 'I' for Inactive)
REMARK    1  A    between atoms: _1  and  _3
REMARK    2  A    between atoms: _3  and  _4
REMARK    3  A    between atoms: _3  and  _6
REMARK    4  A    between atoms: _6  and  _7
REMARK    5  A    between atoms: _12  and  _13
REMARK    6  A    between atoms: _15  and  _17
REMARK    7  A    between atoms: _17  and  _18
REMARK    8  A    between atoms: _17  and  _20
REMARK    9  A    between atoms: _20  and  _21
REMARK   10  A    between atoms: _24  and  _26
REMARK   11  A    between atoms: _26  and  _27
REMARK   12  A    between atoms: _26  and  _29
REMARK   13  A    between atoms: _29  and  _30
REMARK   14  A    between atoms: _30  and  _31
REMARK   15  A    between atoms: _36  and  _38
REMARK   16  A    between atoms: _38  and  _39
REMARK   17  A    between atoms: _38  and  _41
REMARK   18  A    between atoms: _41  and  _42
REMARK   19  A    between atoms: _47  and  _48
REMARK   20  A    between atoms: _50  and  _52
REMARK   21  A    between atoms: _52  and  _53
REMARK   22  A    between atoms: _52  and  _55
REMARK   23  A    between atoms: _55  and  _56
REMARK   24  A    between atoms: _61  and  _62
REMARK   25  A    between atoms: _64  and  _66
REMARK   26  A    between atoms: _66  and  _67
REMARK   27  A    between atoms: _66  and  _69
REMARK   28  A    between atoms: _72  and  _74
REMARK   29  A    between atoms: _74  and  _75
REMARK   30  A    between atoms: _74  and  _77
REMARK   31  A    between atoms: _77  and  _78
REMARK   32  A    between atoms: _84  and  _86
REMARK   33  A    between atoms: _86  and  _87
REMARK   34  A    between atoms: _86  and  _89
REMARK   35  A    between atoms: _89  and  _90
REMARK   36  A    between atoms: _93  and  _95
REMARK   37  A    between atoms: _95  and  _96
REMARK   38  A    between atoms: _95  and  _98
REMARK   39  A    between atoms: _98  and  _99
REMARK   40  A    between atoms: _102  and  _104
REMARK   41  A    between atoms: _104  and  _105
REMARK   42  A    between atoms: _107  and  _109
REMARK   43  A    between atoms: _109  and  _110
REMARK   44  A    between atoms: _109  and  _112
REMARK   45  A    between atoms: _112  and  _113
REMARK   46  A    between atoms: _115  and  _117
REMARK   47  A    between atoms: _117  and  _118
REMARK   48  A    between atoms: _117  and  _120
REMARK   49  A    between atoms: _120  and  _121
REMARK   50  A    between atoms: _123  and  _125
REMARK   51  A    between atoms: _125  and  _126
REMARK   52  A    between atoms: _125  and  _128
REMARK   53  A    between atoms: _128  and  _129
REMARK   54  A    between atoms: _134  and  _136
REMARK   55  A    between atoms: _136  and  _137
REMARK   56  A    between atoms: _136  and  _139
REMARK   57  A    between atoms: _139  and  _140
REMARK   58  A    between atoms: _150  and  _152
REMARK   59  A    between atoms: _152  and  _153
REMARK   60  A    between atoms: _152  and  _155
REMARK   61  A    between atoms: _155  and  _156
REMARK   62  A    between atoms: _159  and  _161
REMARK   63  A    between atoms: _161  and  _162
REMARK   64  A    between atoms: _161  and  _164
REMARK   65  A    between atoms: _164  and  _165
REMARK   66  A    between atoms: _165  and  _166
REMARK   67  A    between atoms: _166  and  _167
REMARK   68  A    between atoms: _176  and  _178
REMARK   69  A    between atoms: _178  and  _179
REMARK   70  A    between atoms: _178  and  _181
REMARK   71  A    between atoms: _181  and  _182
REMARK   72  A    between atoms: _187  and  _188
REMARK   73  A    between atoms: _190  and  _192
REMARK   74  A    between atoms: _192  and  _193
REMARK   75  A    between atoms: _192  and  _195
REMARK   76  A    between atoms: _195  and  _196
REMARK   77  A    between atoms: _198  and  _200
REMARK   78  A    between atoms: _200  and  _201
REMARK   79  A    between atoms: _200  and  _203
REMARK   80  A    between atoms: _203  and  _204
REMARK   81  A    between atoms: _207  and  _209
REMARK   82  A    between atoms: _209  and  _210
REMARK   83  A    between atoms: _212  and  _214
REMARK   84  A    between atoms: _214  and  _215
REMARK   85  A    between atoms: _214  and  _217
REMARK   86  A    between atoms: _221  and  _222
REMARK   87  A    between atoms: _227  and  _229
REMARK   88  A    between atoms: _229  and  _230
REMARK   89  A    between atoms: _233  and  _235
REMARK   90  A    between atoms: _235  and  _236
REMARK   91  A    between atoms: _235  and  _238
REMARK   92  A    between atoms: _238  and  _239
REMARK   93  A    between atoms: _243  and  _244
REMARK   94  A    between atoms: _249  and  _251
REMARK   95  A    between atoms: _251  and  _252
REMARK   96  A    between atoms: _251  and  _254
REMARK   97  A    between atoms: _254  and  _255
REMARK   98  A    between atoms: _261  and  _263
REMARK   99  A    between atoms: _263  and  _264
REMARK  100  A    between atoms: _263  and  _266
REMARK  101  A    between atoms: _266  and  _267
REMARK  102  A    between atoms: _267  and  _268
REMARK  103  A    between atoms: _270  and  _272
REMARK  104  A    between atoms: _272  and  _273
REMARK  105  A    between atoms: _272  and  _275
REMARK  106  A    between atoms: _275  and  _276
REMARK  107  A    between atoms: _279  and  _281
REMARK  108  A    between atoms: _281  and  _282
REMARK  109  A    between atoms: _285  and  _287
REMARK  110  A    between atoms: _287  and  _288
REMARK  111  A    between atoms: _287  and  _290
REMARK  112  A    between atoms: _290  and  _291
REMARK  113  A    between atoms: _291  and  _292
REMARK  114  A    between atoms: _295  and  _297
REMARK  115  A    between atoms: _297  and  _298
REMARK  116  A    between atoms: _297  and  _300
REMARK  117  A    between atoms: _300  and  _301
REMARK  118  A    between atoms: _307  and  _309
REMARK  119  A    between atoms: _309  and  _310
REMARK  120  A    between atoms: _312  and  _314
REMARK  121  A    between atoms: _314  and  _315
REMARK  122  A    between atoms: _314  and  _317
REMARK  123  A    between atoms: _320  and  _322
REMARK  124  A    between atoms: _322  and  _323
REMARK  125  A    between atoms: _322  and  _325
REMARK  126  A    between atoms: _328  and  _330
REMARK  127  A    between atoms: _330  and  _331
REMARK  128  A    between atoms: _333  and  _335
REMARK  129  A    between atoms: _335  and  _336
REMARK  130  A    between atoms: _335  and  _338
REMARK  131  A    between atoms: _338  and  _339
REMARK  132  A    between atoms: _339  and  _340
REMARK  133  A    between atoms: _342  and  _344
REMARK  134  A    between atoms: _344  and  _345
REMARK  135  A    between atoms: _344  and  _347
REMARK  136  A    between atoms: _347  and  _348
REMARK  137  A    between atoms: _353  and  _354
REMARK  138  A    between atoms: _356  and  _358
REMARK  139  A    between atoms: _358  and  _359
REMARK  140  A    between atoms: _358  and  _361
REMARK  141  A    between atoms: _361  and  _362
REMARK  142  A    between atoms: _365  and  _367
REMARK  143  A    between atoms: _367  and  _368
REMARK  144  A    between atoms: _367  and  _370
REMARK  145  A    between atoms: _373  and  _375
REMARK  146  A    between atoms: _375  and  _376
REMARK  147  A    between atoms: _375  and  _378
REMARK  148  A    between atoms: _378  and  _379
REMARK  149  A    between atoms: _382  and  _384
REMARK  150  A    between atoms: _384  and  _385
REMARK  151  A    between atoms: _384  and  _387
REMARK  152  A    between atoms: _387  and  _388
REMARK  153  A    between atoms: _391  and  _393
REMARK  154  A    between atoms: _393  and  _394
REMARK  155  A    between atoms: _396  and  _398
REMARK  156  A    between atoms: _398  and  _399
REMARK  157  A    between atoms: _402  and  _404
REMARK  158  A    between atoms: _404  and  _405
REMARK  159  A    between atoms: _404  and  _407
REMARK  160  A    between atoms: _407  and  _408
REMARK  161  A    between atoms: _410  and  _412
REMARK  162  A    between atoms: _412  and  _413
REMARK  163  A    between atoms: _412  and  _415
REMARK  164  A    between atoms: _415  and  _416
REMARK  165  A    between atoms: _421  and  _422
REMARK  166  A    between atoms: _424  and  _426
REMARK  167  A    between atoms: _426  and  _427
REMARK  168  A    between atoms: _426  and  _429
REMARK  169  A    between atoms: _429  and  _430
REMARK  170  A    between atoms: _433  and  _435
REMARK  171  A    between atoms: _435  and  _436
REMARK  172  A    between atoms: _435  and  _438
REMARK  173  A    between atoms: _438  and  _439
REMARK  174  A    between atoms: _441  and  _443
REMARK  175  A    between atoms: _443  and  _444
REMARK  176  A    between atoms: _446  and  _448
REMARK  177  A    between atoms: _448  and  _449
REMARK  178  A    between atoms: _448  and  _451
REMARK  179  A    between atoms: _451  and  _452
REMARK  180  A    between atoms: _457  and  _459
REMARK  181  A    between atoms: _459  and  _460
REMARK  182  A    between atoms: _463  and  _465
REMARK  183  A    between atoms: _465  and  _466
REMARK  184  A    between atoms: _465  and  _468
REMARK  185  A    between atoms: _468  and  _469
REMARK  186  A    between atoms: _469  and  _470
REMARK  187  A    between atoms: _472  and  _474
REMARK  188  A    between atoms: _474  and  _475
REMARK  189  A    between atoms: _474  and  _477
REMARK  190  A    between atoms: _477  and  _478
REMARK  191  A    between atoms: _481  and  _483
REMARK  192  A    between atoms: _483  and  _484
REMARK  193  A    between atoms: _483  and  _486
REMARK  194  A    between atoms: _486  and  _487
REMARK  195  A    between atoms: _490  and  _492
REMARK  196  A    between atoms: _492  and  _493
REMARK  197  A    between atoms: _496  and  _498
REMARK  198  A    between atoms: _498  and  _499
REMARK                            x       y       z     vdW  Elec       q    Type
REMARK                         _______ _______ _______ _____ _____    ______ ____
ROOT
ATOM      1  O   HOH     1      29.729  59.596  37.737  0.00  0.00    +0.000 OA
ENDROOT
TORSDOF 0
REMARK  Name = ../refined-set-2016/4s1g/4s1g_pocket.pdb
REMARK  198 active torsions:
REMARK  status: ('A' for Active; 'I' for Inactive)
REMARK    1  A    between atoms: _1  and  _3
REMARK    2  A    between atoms: _3  and  _4
REMARK    3  A    between atoms: _3  and  _6
REMARK    4  A    between atoms: _6  and  _7
REMARK    5  A    between atoms: _12  and  _13
REMARK    6  A    between atoms: _15  and  _17
REMARK    7  A    between atoms: _17  and  _18
REMARK    8  A    between atoms: _17  and  _20
REMARK    9  A    between atoms: _20  and  _21
REMARK   10  A    between atoms: _24  and  _26
REMARK   11  A    between atoms: _26  and  _27
REMARK   12  A    between atoms: _26  and  _29
REMARK   13  A    between atoms: _29  and  _30
REMARK   14  A    between atoms: _30  and  _31
REMARK   15  A    between atoms: _36  and  _38
REMARK   16  A    between atoms: _38  and  _39
REMARK   17  A    between atoms: _38  and  _41
REMARK   18  A    between atoms: _41  and  _42
REMARK   19  A    between atoms: _47  and  _48
REMARK   20  A    between atoms: _50  and  _52
REMARK   21  A    between atoms: _52  and  _53
REMARK   22  A    between atoms: _52  and  _55
REMARK   23  A    between atoms: _55  and  _56
REMARK   24  A    between atoms: _61  and  _62
REMARK   25  A    between atoms: _64  and  _66
REMARK   26  A    between atoms: _66  and  _67
REMARK   27  A    between atoms: _66  and  _69
REMARK   28  A    between atoms: _72  and  _74
REMARK   29  A    between atoms: _74  and  _75
REMARK   30  A    between atoms: _74  and  _77
REMARK   31  A    between atoms: _77  and  _78
REMARK   32  A    between atoms: _84  and  _86
REMARK   33  A    between atoms: _86  and  _87
REMARK   34  A    between atoms: _86  and  _89
REMARK   35  A    between atoms: _89  and  _90
REMARK   36  A    between atoms: _93  and  _95
REMARK   37  A    between atoms: _95  and  _96
REMARK   38  A    between atoms: _95  and  _98
REMARK   39  A    between atoms: _98  and  _99
REMARK   40  A    between atoms: _102  and  _104
REMARK   41  A    between atoms: _104  and  _105
REMARK   42  A    between atoms: _107  and  _109
REMARK   43  A    between atoms: _109  and  _110
REMARK   44  A    between atoms: _109  and  _112
REMARK   45  A    between atoms: _112  and  _113
REMARK   46  A    between atoms: _115  and  _117
REMARK   47  A    between atoms: _117  and  _118
REMARK   48  A    between atoms: _117  and  _120
REMARK   49  A    between atoms: _120  and  _121
REMARK   50  A    between atoms: _123  and  _125
REMARK   51  A    between atoms: _125  and  _126
REMARK   52  A    between atoms: _125  and  _128
REMARK   53  A    between atoms: _128  and  _129
REMARK   54  A    between atoms: _134  and  _136
REMARK   55  A    between atoms: _136  and  _137
REMARK   56  A    between atoms: _136  and  _139
REMARK   57  A    between atoms: _139  and  _140
REMARK   58  A    between atoms: _150  and  _152
REMARK   59  A    between atoms: _152  and  _153
REMARK   60  A    between atoms: _152  and  _155
REMARK   61  A    between atoms: _155  and  _156
REMARK   62  A    between atoms: _159  and  _161
REMARK   63  A    between atoms: _161  and  _162
REMARK   64  A    between atoms: _161  and  _164
REMARK   65  A    between atoms: _164  and  _165
REMARK   66  A    between atoms: _165  and  _166
REMARK   67  A    between atoms: _166  and  _167
REMARK   68  A    between atoms: _176  and  _178
REMARK   69  A    between atoms: _178  and  _179
REMARK   70  A    between atoms: _178  and  _181
REMARK   71  A    between atoms: _181  and  _182
REMARK   72  A    between atoms: _187  and  _188
REMARK   73  A    between atoms: _190  and  _192
REMARK   74  A    between atoms: _192  and  _193
REMARK   75  A    between atoms: _192  and  _195
REMARK   76  A    between atoms: _195  and  _196
REMARK   77  A    between atoms: _198  and  _200
REMARK   78  A    between atoms: _200  and  _201
REMARK   79  A    between atoms: _200  and  _203
REMARK   80  A    between atoms: _203  and  _204
REMARK   81  A    between atoms: _207  and  _209
REMARK   82  A    between atoms: _209  and  _210
REMARK   83  A    between atoms: _212  and  _214
REMARK   84  A    between atoms: _214  and  _215
REMARK   85  A    between atoms: _214  and  _217
REMARK   86  A    between atoms: _221  and  _222
REMARK   87  A    between atoms: _227  and  _229
REMARK   88  A    between atoms: _229  and  _230
REMARK   89  A    between atoms: _233  and  _235
REMARK   90  A    between atoms: _235  and  _236
REMARK   91  A    between atoms: _235  and  _238
REMARK   92  A    between atoms: _238  and  _239
REMARK   93  A    between atoms: _243  and  _244
REMARK   94  A    between atoms: _249  and  _251
REMARK   95  A    between atoms: _251  and  _252
REMARK   96  A    between atoms: _251  and  _254
REMARK   97  A    between atoms: _254  and  _255
REMARK   98  A    between atoms: _261  and  _263
REMARK   99  A    between atoms: _263  and  _264
REMARK  100  A    between atoms: _263  and  _266
REMARK  101  A    between atoms: _266  and  _267
REMARK  102  A    between atoms: _267  and  _268
REMARK  103  A    between atoms: _270  and  _272
REMARK  104  A    between atoms: _272  and  _273
REMARK  105  A    between atoms: _272  and  _275
REMARK  106  A    between atoms: _275  and  _276
REMARK  107  A    between atoms: _279  and  _281
REMARK  108  A    between atoms: _281  and  _282
REMARK  109  A    between atoms: _285  and  _287
REMARK  110  A    between atoms: _287  and  _288
REMARK  111  A    between atoms: _287  and  _290
REMARK  112  A    between atoms: _290  and  _291
REMARK  113  A    between atoms: _291  and  _292
REMARK  114  A    between atoms: _295  and  _297
REMARK  115  A    between atoms: _297  and  _298
REMARK  116  A    between atoms: _297  and  _300
REMARK  117  A    between atoms: _300  and  _301
REMARK  118  A    between atoms: _307  and  _309
REMARK  119  A    between atoms: _309  and  _310
REMARK  120  A    between atoms: _312  and  _314
REMARK  121  A    between atoms: _314  and  _315
REMARK  122  A    between atoms: _314  and  _317
REMARK  123  A    between atoms: _320  and  _322
REMARK  124  A    between atoms: _322  and  _323
REMARK  125  A    between atoms: _322  and  _325
REMARK  126  A    between atoms: _328  and  _330
REMARK  127  A    between atoms: _330  and  _331
REMARK  128  A    between atoms: _333  and  _335
REMARK  129  A    between atoms: _335  and  _336
REMARK  130  A    between atoms: _335  and  _338
REMARK  131  A    between atoms: _338  and  _339
REMARK  132  A    between atoms: _339  and  _340
REMARK  133  A    between atoms: _342  and  _344
REMARK  134  A    between atoms: _344  and  _345
REMARK  135  A    between atoms: _344  and  _347
REMARK  136  A    between atoms: _347  and  _348
REMARK  137  A    between atoms: _353  and  _354
REMARK  138  A    between atoms: _356  and  _358
REMARK  139  A    between atoms: _358  and  _359
REMARK  140  A    between atoms: _358  and  _361
REMARK  141  A    between atoms: _361  and  _362
REMARK  142  A    between atoms: _365  and  _367
REMARK  143  A    between atoms: _367  and  _368
REMARK  144  A    between atoms: _367  and  _370
REMARK  145  A    between atoms: _373  and  _375
REMARK  146  A    between atoms: _375  and  _376
REMARK  147  A    between atoms: _375  and  _378
REMARK  148  A    between atoms: _378  and  _379
REMARK  149  A    between atoms: _382  and  _384
REMARK  150  A    between atoms: _384  and  _385
REMARK  151  A    between atoms: _384  and  _387
REMARK  152  A    between atoms: _387  and  _388
REMARK  153  A    between atoms: _391  and  _393
REMARK  154  A    between atoms: _393  and  _394
REMARK  155  A    between atoms: _396  and  _398
REMARK  156  A    between atoms: _398  and  _399
REMARK  157  A    between atoms: _402  and  _404
REMARK  158  A    between atoms: _404  and  _405
REMARK  159  A    between atoms: _404  and  _407
REMARK  160  A    between atoms: _407  and  _408
REMARK  161  A    between atoms: _410  and  _412
REMARK  162  A    between atoms: _412  and  _413
REMARK  163  A    between atoms: _412  and  _415
REMARK  164  A    between atoms: _415  and  _416
REMARK  165  A    between atoms: _421  and  _422
REMARK  166  A    between atoms: _424  and  _426
REMARK  167  A    between atoms: _426  and  _427
REMARK  168  A    between atoms: _426  and  _429
REMARK  169  A    between atoms: _429  and  _430
REMARK  170  A    between atoms: _433  and  _435
REMARK  171  A    between atoms: _435  and  _436
REMARK  172  A    between atoms: _435  and  _438
REMARK  173  A    between atoms: _438  and  _439
REMARK  174  A    between atoms: _441  and  _443
REMARK  175  A    between atoms: _443  and  _444
REMARK  176  A    between atoms: _446  and  _448
REMARK  177  A    between atoms: _448  and  _449
REMARK  178  A    between atoms: _448  and  _451
REMARK  179  A    between atoms: _451  and  _452
REMARK  180  A    between atoms: _457  and  _459
REMARK  181  A    between atoms: _459  and  _460
REMARK  182  A    between atoms: _463  and  _465
REMARK  183  A    between atoms: _465  and  _466
REMARK  184  A    between atoms: _465  and  _468
REMARK  185  A    between atoms: _468  and  _469
REMARK  186  A    between atoms: _469  and  _470
REMARK  187  A    between atoms: _472  and  _474
REMARK  188  A    between atoms: _474  and  _475
REMARK  189  A    between atoms: _474  and  _477
REMARK  190  A    between atoms: _477  and  _478
REMARK  191  A    between atoms: _481  and  _483
REMARK  192  A    between atoms: _483  and  _484
REMARK  193  A    between atoms: _483  and  _486
REMARK  194  A    between atoms: _486  and  _487
REMARK  195  A    between atoms: _490  and  _492
REMARK  196  A    between atoms: _492  and  _493
REMARK  197  A    between atoms: _496  and  _498
REMARK  198  A    between atoms: _498  and  _499
REMARK                            x       y       z     vdW  Elec       q    Type
REMARK                         _______ _______ _______ _____ _____    ______ ____
ROOT
ATOM      1  O   HOH     1      45.618  61.893  44.982  0.00  0.00    +0.000 OA
ENDROOT
TORSDOF 0
