REMARK  Name = ../refined-set-2016/2gh9/2gh9_pocket.pdb
REMARK  189 active torsions:
REMARK  status: ('A' for Active; 'I' for Inactive)
REMARK    1  A    between atoms: _1  and  _3
REMARK    2  A    between atoms: _3  and  _4
REMARK    3  A    between atoms: _3  and  _6
REMARK    4  A    between atoms: _6  and  _7
REMARK    5  A    between atoms: _10  and  _12
REMARK    6  A    between atoms: _12  and  _13
REMARK    7  A    between atoms: _12  and  _15
REMARK    8  A    between atoms: _15  and  _16
REMARK    9  A    between atoms: _21  and  _23
REMARK   10  A    between atoms: _23  and  _24
REMARK   11  A    between atoms: _23  and  _26
REMARK   12  A    between atoms: _26  and  _27
REMARK   13  A    between atoms: _33  and  _35
REMARK   14  A    between atoms: _35  and  _36
REMARK   15  A    between atoms: _38  and  _40
REMARK   16  A    between atoms: _40  and  _41
REMARK   17  A    between atoms: _40  and  _43
REMARK   18  A    between atoms: _43  and  _44
REMARK   19  A    between atoms: _44  and  _45
REMARK   20  A    between atoms: _48  and  _50
REMARK   21  A    between atoms: _50  and  _51
REMARK   22  A    between atoms: _50  and  _53
REMARK   23  A    between atoms: _57  and  _58
REMARK   24  A    between atoms: _63  and  _65
REMARK   25  A    between atoms: _65  and  _66
REMARK   26  A    between atoms: _65  and  _68
REMARK   27  A    between atoms: _68  and  _69
REMARK   28  A    between atoms: _75  and  _77
REMARK   29  A    between atoms: _77  and  _78
REMARK   30  A    between atoms: _81  and  _83
REMARK   31  A    between atoms: _83  and  _84
REMARK   32  A    between atoms: _83  and  _86
REMARK   33  A    between atoms: _86  and  _87
REMARK   34  A    between atoms: _87  and  _88
REMARK   35  A    between atoms: _91  and  _93
REMARK   36  A    between atoms: _93  and  _94
REMARK   37  A    between atoms: _93  and  _96
REMARK   38  A    between atoms: _96  and  _97
REMARK   39  A    between atoms: _100  and  _102
REMARK   40  A    between atoms: _102  and  _103
REMARK   41  A    between atoms: _102  and  _105
REMARK   42  A    between atoms: _105  and  _106
REMARK   43  A    between atoms: _106  and  _107
REMARK   44  A    between atoms: _107  and  _108
REMARK   45  A    between atoms: _108  and  _109
REMARK   46  A    between atoms: _113  and  _115
REMARK   47  A    between atoms: _115  and  _116
REMARK   48  A    between atoms: _115  and  _118
REMARK   49  A    between atoms: _118  and  _119
REMARK   50  A    between atoms: _122  and  _124
REMARK   51  A    between atoms: _124  and  _125
REMARK   52  A    between atoms: _124  and  _127
REMARK   53  A    between atoms: _131  and  _132
REMARK   54  A    between atoms: _137  and  _139
REMARK   55  A    between atoms: _139  and  _140
REMARK   56  A    between atoms: _139  and  _142
REMARK   57  A    between atoms: _142  and  _143
REMARK   58  A    between atoms: _148  and  _150
REMARK   59  A    between atoms: _150  and  _151
REMARK   60  A    between atoms: _150  and  _153
REMARK   61  A    between atoms: _153  and  _154
REMARK   62  A    between atoms: _157  and  _159
REMARK   63  A    between atoms: _159  and  _160
REMARK   64  A    between atoms: _159  and  _162
REMARK   65  A    between atoms: _162  and  _163
REMARK   66  A    between atoms: _173  and  _175
REMARK   67  A    between atoms: _175  and  _176
REMARK   68  A    between atoms: _175  and  _178
REMARK   69  A    between atoms: _181  and  _183
REMARK   70  A    between atoms: _183  and  _184
REMARK   71  A    between atoms: _183  and  _186
REMARK   72  A    between atoms: _186  and  _187
REMARK   73  A    between atoms: _187  and  _188
REMARK   74  A    between atoms: _191  and  _193
REMARK   75  A    between atoms: _193  and  _194
REMARK   76  A    between atoms: _193  and  _196
REMARK   77  A    between atoms: _196  and  _197
REMARK   78  A    between atoms: _197  and  _198
REMARK   79  A    between atoms: _201  and  _203
REMARK   80  A    between atoms: _203  and  _204
REMARK   81  A    between atoms: _203  and  _206
REMARK   82  A    between atoms: _206  and  _207
REMARK   83  A    between atoms: _209  and  _211
REMARK   84  A    between atoms: _211  and  _212
REMARK   85  A    between atoms: _211  and  _214
REMARK   86  A    between atoms: _217  and  _219
REMARK   87  A    between atoms: _219  and  _220
REMARK   88  A    between atoms: _219  and  _222
REMARK   89  A    between atoms: _222  and  _223
REMARK   90  A    between atoms: _228  and  _230
REMARK   91  A    between atoms: _230  and  _231
REMARK   92  A    between atoms: _233  and  _235
REMARK   93  A    between atoms: _235  and  _236
REMARK   94  A    between atoms: _235  and  _238
REMARK   95  A    between atoms: _238  and  _239
REMARK   96  A    between atoms: _243  and  _244
REMARK   97  A    between atoms: _249  and  _251
REMARK   98  A    between atoms: _251  and  _252
REMARK   99  A    between atoms: _251  and  _254
REMARK  100  A    between atoms: _254  and  _255
REMARK  101  A    between atoms: _260  and  _261
REMARK  102  A    between atoms: _263  and  _265
REMARK  103  A    between atoms: _265  and  _266
REMARK  104  A    between atoms: _265  and  _268
REMARK  105  A    between atoms: _268  and  _269
REMARK  106  A    between atoms: _275  and  _277
REMARK  107  A    between atoms: _277  and  _278
REMARK  108  A    between atoms: _277  and  _280
REMARK  109  A    between atoms: _280  and  _281
REMARK  110  A    between atoms: _286  and  _288
REMARK  111  A    between atoms: _288  and  _289
REMARK  112  A    between atoms: _288  and  _291
REMARK  113  A    between atoms: _291  and  _292
REMARK  114  A    between atoms: _297  and  _298
REMARK  115  A    between atoms: _300  and  _302
REMARK  116  A    between atoms: _302  and  _303
REMARK  117  A    between atoms: _305  and  _307
REMARK  118  A    between atoms: _307  and  _308
REMARK  119  A    between atoms: _307  and  _310
REMARK  120  A    between atoms: _310  and  _311
REMARK  121  A    between atoms: _314  and  _316
REMARK  122  A    between atoms: _316  and  _317
REMARK  123  A    between atoms: _316  and  _319
REMARK  124  A    between atoms: _319  and  _320
REMARK  125  A    between atoms: _325  and  _327
REMARK  126  A    between atoms: _327  and  _328
REMARK  127  A    between atoms: _331  and  _332
REMARK  128  A    between atoms: _337  and  _339
REMARK  129  A    between atoms: _339  and  _340
REMARK  130  A    between atoms: _339  and  _342
REMARK  131  A    between atoms: _342  and  _343
REMARK  132  A    between atoms: _353  and  _355
REMARK  133  A    between atoms: _355  and  _356
REMARK  134  A    between atoms: _359  and  _361
REMARK  135  A    between atoms: _361  and  _362
REMARK  136  A    between atoms: _361  and  _364
REMARK  137  A    between atoms: _364  and  _365
REMARK  138  A    between atoms: _371  and  _373
REMARK  139  A    between atoms: _373  and  _374
REMARK  140  A    between atoms: _373  and  _376
REMARK  141  A    between atoms: _376  and  _377
REMARK  142  A    between atoms: _380  and  _382
REMARK  143  A    between atoms: _382  and  _383
REMARK  144  A    between atoms: _385  and  _387
REMARK  145  A    between atoms: _387  and  _388
REMARK  146  A    between atoms: _387  and  _390
REMARK  147  A    between atoms: _393  and  _395
REMARK  148  A    between atoms: _395  and  _396
REMARK  149  A    between atoms: _395  and  _398
REMARK  150  A    between atoms: _398  and  _399
REMARK  151  A    between atoms: _399  and  _400
REMARK  152  A    between atoms: _405  and  _407
REMARK  153  A    between atoms: _407  and  _408
REMARK  154  A    between atoms: _407  and  _410
REMARK  155  A    between atoms: _410  and  _411
REMARK  156  A    between atoms: _417  and  _419
REMARK  157  A    between atoms: _419  and  _420
REMARK  158  A    between atoms: _419  and  _422
REMARK  159  A    between atoms: _422  and  _423
REMARK  160  A    between atoms: _423  and  _424
REMARK  161  A    between atoms: _424  and  _425
REMARK  162  A    between atoms: _434  and  _436
REMARK  163  A    between atoms: _436  and  _437
REMARK  164  A    between atoms: _436  and  _439
REMARK  165  A    between atoms: _439  and  _440
REMARK  166  A    between atoms: _440  and  _441
REMARK  167  A    between atoms: _444  and  _445
REMARK  168  A    between atoms: _450  and  _452
REMARK  169  A    between atoms: _452  and  _453
REMARK  170  A    between atoms: _452  and  _455
REMARK  171  A    between atoms: _455  and  _456
REMARK  172  A    between atoms: _456  and  _457
REMARK  173  A    between atoms: _459  and  _461
REMARK  174  A    between atoms: _461  and  _462
REMARK  175  A    between atoms: _464  and  _466
REMARK  176  A    between atoms: _466  and  _467
REMARK  177  A    between atoms: _466  and  _469
REMARK  178  A    between atoms: _472  and  _474
REMARK  179  A    between atoms: _474  and  _475
REMARK  180  A    between atoms: _474  and  _477
REMARK  181  A    between atoms: _477  and  _478
REMARK  182  A    between atoms: _488  and  _490
REMARK  183  A    between atoms: _490  and  _491
REMARK  184  A    between atoms: _493  and  _495
REMARK  185  A    between atoms: _495  and  _496
REMARK  186  A    between atoms: _495  and  _498
REMARK  187  A    between atoms: _498  and  _499
REMARK  188  A    between atoms: _509  and  _511
REMARK  189  A    between atoms: _511  and  _512
REMARK                            x       y       z     vdW  Elec       q    Type
REMARK                         _______ _______ _______ _____ _____    ______ ____
ROOT
ATOM      1  C   HIS A   2      17.395  21.819  17.471  0.00  0.00    +0.241 C 
ATOM      2  O   HIS A   2      18.594  21.740  17.142  0.00  0.00    -0.273 OA
ATOM      3  N   PHE A   3      16.401  21.592  16.620  0.00  0.00    -0.297 N 
ATOM      4  H   PHE A   3      15.418  21.697  16.942  0.00  0.00    +0.150 HD
ENDROOT
BRANCH   1   5
ATOM      5  CA  HIS A   2      16.978  22.206  18.891  0.00  0.00    +0.155 C 
BRANCH   5   7
ATOM      6  C   THR A   1      14.699  23.143  19.048  0.00  0.00    +0.241 C 
ATOM      7  N   HIS A   2      15.521  22.100  19.085  0.00  0.00    -0.297 N 
ATOM      8  H   HIS A   2      15.115  21.159  19.260  0.00  0.00    +0.150 HD
ATOM      9  O   THR A   1      15.078  24.304  18.939  0.00  0.00    -0.274 OA
BRANCH   6  10
ATOM     10  CA  THR A   1      13.207  22.818  19.109  0.00  0.00    +0.172 C 
BRANCH  10  11
ATOM     11  N   THR A   1      12.423  23.863  19.783  0.00  0.00    -0.236 NA
ATOM     12  H   THR A   1      12.659  24.863  19.620  0.00  0.00    +0.142 HD
ENDBRANCH  10  11
BRANCH  10  13
ATOM     13  CB  THR A   1      12.693  22.577  17.655  0.00  0.00    +0.135 C 
ATOM     14  CG2 THR A   1      12.927  23.790  16.769  0.00  0.00    +0.034 C 
BRANCH  13  15
ATOM     15  OG1 THR A   1      13.350  21.443  17.104  0.00  0.00    -0.383 OA
ATOM     16  HG1 THR A   1      13.155  20.648  17.660  0.00  0.00    +0.210 HD
ENDBRANCH  13  15
ENDBRANCH  10  13
ENDBRANCH   6  10
ENDBRANCH   5   7
BRANCH   5  17
ATOM     17  CB  HIS A   2      17.751  21.359  19.907  0.00  0.00    +0.076 C 
BRANCH  17  18
ATOM     18  CG  HIS A   2      17.330  19.918  19.982  0.00  0.00    +0.082 A 
ATOM     19  CD2 HIS A   2      16.427  19.293  20.781  0.00  0.00    +0.115 A 
ATOM     20  NE2 HIS A   2      16.481  17.951  20.488  0.00  0.00    -0.221 NA
ATOM     21  CE1 HIS A   2      17.373  17.759  19.530  0.00  0.00    +0.199 A 
ATOM     22  ND1 HIS A   2      17.923  18.924  19.230  0.00  0.00    -0.227 NA
ENDBRANCH  17  18
ENDBRANCH   5  17
ENDBRANCH   1   5
BRANCH   3  23
ATOM     23  CA  PHE A   3      16.661  21.203  15.260  0.00  0.00    +0.153 C 
BRANCH  23  24
ATOM     24  C   PHE A   3      17.188  22.394  14.447  0.00  0.00    +0.241 C 
ATOM     25  O   PHE A   3      16.824  23.556  14.681  0.00  0.00    -0.273 OA
ATOM     26  N   GLY A   4      18.041  22.079  13.481  0.00  0.00    -0.296 N 
ATOM     27  H   GLY A   4      18.433  21.116  13.454  0.00  0.00    +0.150 HD
BRANCH  26  28
ATOM     28  CA  GLY A   4      18.448  23.028  12.459  0.00  0.00    +0.163 C 
BRANCH  28  29
ATOM     29  C   GLY A   4      18.407  22.358  11.119  0.00  0.00    +0.229 C 
ATOM     30  O   GLY A   4      18.038  21.182  11.014  0.00  0.00    -0.286 OA
ENDBRANCH  28  29
ENDBRANCH  26  28
ENDBRANCH  23  24
BRANCH  23  31
ATOM     31  CB  PHE A   3      15.385  20.678  14.573  0.00  0.00    +0.055 C 
BRANCH  31  32
ATOM     32  CG  PHE A   3      14.807  19.432  15.177  0.00  0.00    -0.020 A 
ATOM     33  CD2 PHE A   3      15.498  18.676  16.116  0.00  0.00    -0.004 A 
ATOM     34  CE2 PHE A   3      14.948  17.543  16.653  0.00  0.00    -0.000 A 
ATOM     35  CZ  PHE A   3      13.695  17.128  16.240  0.00  0.00    -0.000 A 
ATOM     36  CE1 PHE A   3      12.989  17.875  15.317  0.00  0.00    -0.000 A 
ATOM     37  CD1 PHE A   3      13.546  19.008  14.789  0.00  0.00    -0.004 A 
ENDBRANCH  31  32
ENDBRANCH  23  31
ENDBRANCH   3  23
TORSDOF 14
REMARK  Name = ../refined-set-2016/2gh9/2gh9_pocket.pdb
REMARK  189 active torsions:
REMARK  status: ('A' for Active; 'I' for Inactive)
REMARK    1  A    between atoms: _1  and  _3
REMARK    2  A    between atoms: _3  and  _4
REMARK    3  A    between atoms: _3  and  _6
REMARK    4  A    between atoms: _6  and  _7
REMARK    5  A    between atoms: _10  and  _12
REMARK    6  A    between atoms: _12  and  _13
REMARK    7  A    between atoms: _12  and  _15
REMARK    8  A    between atoms: _15  and  _16
REMARK    9  A    between atoms: _21  and  _23
REMARK   10  A    between atoms: _23  and  _24
REMARK   11  A    between atoms: _23  and  _26
REMARK   12  A    between atoms: _26  and  _27
REMARK   13  A    between atoms: _33  and  _35
REMARK   14  A    between atoms: _35  and  _36
REMARK   15  A    between atoms: _38  and  _40
REMARK   16  A    between atoms: _40  and  _41
REMARK   17  A    between atoms: _40  and  _43
REMARK   18  A    between atoms: _43  and  _44
REMARK   19  A    between atoms: _44  and  _45
REMARK   20  A    between atoms: _48  and  _50
REMARK   21  A    between atoms: _50  and  _51
REMARK   22  A    between atoms: _50  and  _53
REMARK   23  A    between atoms: _57  and  _58
REMARK   24  A    between atoms: _63  and  _65
REMARK   25  A    between atoms: _65  and  _66
REMARK   26  A    between atoms: _65  and  _68
REMARK   27  A    between atoms: _68  and  _69
REMARK   28  A    between atoms: _75  and  _77
REMARK   29  A    between atoms: _77  and  _78
REMARK   30  A    between atoms: _81  and  _83
REMARK   31  A    between atoms: _83  and  _84
REMARK   32  A    between atoms: _83  and  _86
REMARK   33  A    between atoms: _86  and  _87
REMARK   34  A    between atoms: _87  and  _88
REMARK   35  A    between atoms: _91  and  _93
REMARK   36  A    between atoms: _93  and  _94
REMARK   37  A    between atoms: _93  and  _96
REMARK   38  A    between atoms: _96  and  _97
REMARK   39  A    between atoms: _100  and  _102
REMARK   40  A    between atoms: _102  and  _103
REMARK   41  A    between atoms: _102  and  _105
REMARK   42  A    between atoms: _105  and  _106
REMARK   43  A    between atoms: _106  and  _107
REMARK   44  A    between atoms: _107  and  _108
REMARK   45  A    between atoms: _108  and  _109
REMARK   46  A    between atoms: _113  and  _115
REMARK   47  A    between atoms: _115  and  _116
REMARK   48  A    between atoms: _115  and  _118
REMARK   49  A    between atoms: _118  and  _119
REMARK   50  A    between atoms: _122  and  _124
REMARK   51  A    between atoms: _124  and  _125
REMARK   52  A    between atoms: _124  and  _127
REMARK   53  A    between atoms: _131  and  _132
REMARK   54  A    between atoms: _137  and  _139
REMARK   55  A    between atoms: _139  and  _140
REMARK   56  A    between atoms: _139  and  _142
REMARK   57  A    between atoms: _142  and  _143
REMARK   58  A    between atoms: _148  and  _150
REMARK   59  A    between atoms: _150  and  _151
REMARK   60  A    between atoms: _150  and  _153
REMARK   61  A    between atoms: _153  and  _154
REMARK   62  A    between atoms: _157  and  _159
REMARK   63  A    between atoms: _159  and  _160
REMARK   64  A    between atoms: _159  and  _162
REMARK   65  A    between atoms: _162  and  _163
REMARK   66  A    between atoms: _173  and  _175
REMARK   67  A    between atoms: _175  and  _176
REMARK   68  A    between atoms: _175  and  _178
REMARK   69  A    between atoms: _181  and  _183
REMARK   70  A    between atoms: _183  and  _184
REMARK   71  A    between atoms: _183  and  _186
REMARK   72  A    between atoms: _186  and  _187
REMARK   73  A    between atoms: _187  and  _188
REMARK   74  A    between atoms: _191  and  _193
REMARK   75  A    between atoms: _193  and  _194
REMARK   76  A    between atoms: _193  and  _196
REMARK   77  A    between atoms: _196  and  _197
REMARK   78  A    between atoms: _197  and  _198
REMARK   79  A    between atoms: _201  and  _203
REMARK   80  A    between atoms: _203  and  _204
REMARK   81  A    between atoms: _203  and  _206
REMARK   82  A    between atoms: _206  and  _207
REMARK   83  A    between atoms: _209  and  _211
REMARK   84  A    between atoms: _211  and  _212
REMARK   85  A    between atoms: _211  and  _214
REMARK   86  A    between atoms: _217  and  _219
REMARK   87  A    between atoms: _219  and  _220
REMARK   88  A    between atoms: _219  and  _222
REMARK   89  A    between atoms: _222  and  _223
REMARK   90  A    between atoms: _228  and  _230
REMARK   91  A    between atoms: _230  and  _231
REMARK   92  A    between atoms: _233  and  _235
REMARK   93  A    between atoms: _235  and  _236
REMARK   94  A    between atoms: _235  and  _238
REMARK   95  A    between atoms: _238  and  _239
REMARK   96  A    between atoms: _243  and  _244
REMARK   97  A    between atoms: _249  and  _251
REMARK   98  A    between atoms: _251  and  _252
REMARK   99  A    between atoms: _251  and  _254
REMARK  100  A    between atoms: _254  and  _255
REMARK  101  A    between atoms: _260  and  _261
REMARK  102  A    between atoms: _263  and  _265
REMARK  103  A    between atoms: _265  and  _266
REMARK  104  A    between atoms: _265  and  _268
REMARK  105  A    between atoms: _268  and  _269
REMARK  106  A    between atoms: _275  and  _277
REMARK  107  A    between atoms: _277  and  _278
REMARK  108  A    between atoms: _277  and  _280
REMARK  109  A    between atoms: _280  and  _281
REMARK  110  A    between atoms: _286  and  _288
REMARK  111  A    between atoms: _288  and  _289
REMARK  112  A    between atoms: _288  and  _291
REMARK  113  A    between atoms: _291  and  _292
REMARK  114  A    between atoms: _297  and  _298
REMARK  115  A    between atoms: _300  and  _302
REMARK  116  A    between atoms: _302  and  _303
REMARK  117  A    between atoms: _305  and  _307
REMARK  118  A    between atoms: _307  and  _308
REMARK  119  A    between atoms: _307  and  _310
REMARK  120  A    between atoms: _310  and  _311
REMARK  121  A    between atoms: _314  and  _316
REMARK  122  A    between atoms: _316  and  _317
REMARK  123  A    between atoms: _316  and  _319
REMARK  124  A    between atoms: _319  and  _320
REMARK  125  A    between atoms: _325  and  _327
REMARK  126  A    between atoms: _327  and  _328
REMARK  127  A    between atoms: _331  and  _332
REMARK  128  A    between atoms: _337  and  _339
REMARK  129  A    between atoms: _339  and  _340
REMARK  130  A    between atoms: _339  and  _342
REMARK  131  A    between atoms: _342  and  _343
REMARK  132  A    between atoms: _353  and  _355
REMARK  133  A    between atoms: _355  and  _356
REMARK  134  A    between atoms: _359  and  _361
REMARK  135  A    between atoms: _361  and  _362
REMARK  136  A    between atoms: _361  and  _364
REMARK  137  A    between atoms: _364  and  _365
REMARK  138  A    between atoms: _371  and  _373
REMARK  139  A    between atoms: _373  and  _374
REMARK  140  A    between atoms: _373  and  _376
REMARK  141  A    between atoms: _376  and  _377
REMARK  142  A    between atoms: _380  and  _382
REMARK  143  A    between atoms: _382  and  _383
REMARK  144  A    between atoms: _385  and  _387
REMARK  145  A    between atoms: _387  and  _388
REMARK  146  A    between atoms: _387  and  _390
REMARK  147  A    between atoms: _393  and  _395
REMARK  148  A    between atoms: _395  and  _396
REMARK  149  A    between atoms: _395  and  _398
REMARK  150  A    between atoms: _398  and  _399
REMARK  151  A    between atoms: _399  and  _400
REMARK  152  A    between atoms: _405  and  _407
REMARK  153  A    between atoms: _407  and  _408
REMARK  154  A    between atoms: _407  and  _410
REMARK  155  A    between atoms: _410  and  _411
REMARK  156  A    between atoms: _417  and  _419
REMARK  157  A    between atoms: _419  and  _420
REMARK  158  A    between atoms: _419  and  _422
REMARK  159  A    between atoms: _422  and  _423
REMARK  160  A    between atoms: _423  and  _424
REMARK  161  A    between atoms: _424  and  _425
REMARK  162  A    between atoms: _434  and  _436
REMARK  163  A    between atoms: _436  and  _437
REMARK  164  A    between atoms: _436  and  _439
REMARK  165  A    between atoms: _439  and  _440
REMARK  166  A    between atoms: _440  and  _441
REMARK  167  A    between atoms: _444  and  _445
REMARK  168  A    between atoms: _450  and  _452
REMARK  169  A    between atoms: _452  and  _453
REMARK  170  A    between atoms: _452  and  _455
REMARK  171  A    between atoms: _455  and  _456
REMARK  172  A    between atoms: _456  and  _457
REMARK  173  A    between atoms: _459  and  _461
REMARK  174  A    between atoms: _461  and  _462
REMARK  175  A    between atoms: _464  and  _466
REMARK  176  A    between atoms: _466  and  _467
REMARK  177  A    between atoms: _466  and  _469
REMARK  178  A    between atoms: _472  and  _474
REMARK  179  A    between atoms: _474  and  _475
REMARK  180  A    between atoms: _474  and  _477
REMARK  181  A    between atoms: _477  and  _478
REMARK  182  A    between atoms: _488  and  _490
REMARK  183  A    between atoms: _490  and  _491
REMARK  184  A    between atoms: _493  and  _495
REMARK  185  A    between atoms: _495  and  _496
REMARK  186  A    between atoms: _495  and  _498
REMARK  187  A    between atoms: _498  and  _499
REMARK  188  A    between atoms: _509  and  _511
REMARK  189  A    between atoms: _511  and  _512
REMARK                            x       y       z     vdW  Elec       q    Type
REMARK                         _______ _______ _______ _____ _____    ______ ____
ROOT
ATOM      1  CA  GLU A   1      15.316  18.750  10.238  0.00  0.00    +0.134 C 
ENDROOT
BRANCH   1   2
ATOM      2  N   GLU A   1      16.225  19.212   9.178  0.00  0.00    -0.239 NA
ATOM      3  H   GLU A   1      17.248  19.266   9.356  0.00  0.00    +0.142 HD
ENDBRANCH   1   2
BRANCH   1   4
ATOM      4  C   GLU A   1      14.364  19.831  10.672  0.00  0.00    +0.224 C 
ATOM      5  O   GLU A   1      13.165  19.566  10.854  0.00  0.00    -0.287 OA
ENDBRANCH   1   4
BRANCH   1   6
ATOM      6  CB  GLU A   1      16.075  18.239  11.461  0.00  0.00    +0.037 C 
BRANCH   6   7
ATOM      7  CG  GLU A   1      16.766  16.905  11.266  0.00  0.00    +0.116 C 
BRANCH   7   8
ATOM      8  CD  GLU A   1      17.407  16.399  12.556  0.00  0.00    +0.365 C 
ATOM      9  OE2 GLU A   1      17.581  17.202  13.486  0.00  0.00    -0.246 OA
ATOM     10  OE1 GLU A   1      17.738  15.194  12.654  0.00  0.00    -0.246 OA
ENDBRANCH   7   8
ENDBRANCH   6   7
ENDBRANCH   1   6
TORSDOF 5
REMARK  Name = ../refined-set-2016/2gh9/2gh9_pocket.pdb
REMARK  189 active torsions:
REMARK  status: ('A' for Active; 'I' for Inactive)
REMARK    1  A    between atoms: _1  and  _3
REMARK    2  A    between atoms: _3  and  _4
REMARK    3  A    between atoms: _3  and  _6
REMARK    4  A    between atoms: _6  and  _7
REMARK    5  A    between atoms: _10  and  _12
REMARK    6  A    between atoms: _12  and  _13
REMARK    7  A    between atoms: _12  and  _15
REMARK    8  A    between atoms: _15  and  _16
REMARK    9  A    between atoms: _21  and  _23
REMARK   10  A    between atoms: _23  and  _24
REMARK   11  A    between atoms: _23  and  _26
REMARK   12  A    between atoms: _26  and  _27
REMARK   13  A    between atoms: _33  and  _35
REMARK   14  A    between atoms: _35  and  _36
REMARK   15  A    between atoms: _38  and  _40
REMARK   16  A    between atoms: _40  and  _41
REMARK   17  A    between atoms: _40  and  _43
REMARK   18  A    between atoms: _43  and  _44
REMARK   19  A    between atoms: _44  and  _45
REMARK   20  A    between atoms: _48  and  _50
REMARK   21  A    between atoms: _50  and  _51
REMARK   22  A    between atoms: _50  and  _53
REMARK   23  A    between atoms: _57  and  _58
REMARK   24  A    between atoms: _63  and  _65
REMARK   25  A    between atoms: _65  and  _66
REMARK   26  A    between atoms: _65  and  _68
REMARK   27  A    between atoms: _68  and  _69
REMARK   28  A    between atoms: _75  and  _77
REMARK   29  A    between atoms: _77  and  _78
REMARK   30  A    between atoms: _81  and  _83
REMARK   31  A    between atoms: _83  and  _84
REMARK   32  A    between atoms: _83  and  _86
REMARK   33  A    between atoms: _86  and  _87
REMARK   34  A    between atoms: _87  and  _88
REMARK   35  A    between atoms: _91  and  _93
REMARK   36  A    between atoms: _93  and  _94
REMARK   37  A    between atoms: _93  and  _96
REMARK   38  A    between atoms: _96  and  _97
REMARK   39  A    between atoms: _100  and  _102
REMARK   40  A    between atoms: _102  and  _103
REMARK   41  A    between atoms: _102  and  _105
REMARK   42  A    between atoms: _105  and  _106
REMARK   43  A    between atoms: _106  and  _107
REMARK   44  A    between atoms: _107  and  _108
REMARK   45  A    between atoms: _108  and  _109
REMARK   46  A    between atoms: _113  and  _115
REMARK   47  A    between atoms: _115  and  _116
REMARK   48  A    between atoms: _115  and  _118
REMARK   49  A    between atoms: _118  and  _119
REMARK   50  A    between atoms: _122  and  _124
REMARK   51  A    between atoms: _124  and  _125
REMARK   52  A    between atoms: _124  and  _127
REMARK   53  A    between atoms: _131  and  _132
REMARK   54  A    between atoms: _137  and  _139
REMARK   55  A    between atoms: _139  and  _140
REMARK   56  A    between atoms: _139  and  _142
REMARK   57  A    between atoms: _142  and  _143
REMARK   58  A    between atoms: _148  and  _150
REMARK   59  A    between atoms: _150  and  _151
REMARK   60  A    between atoms: _150  and  _153
REMARK   61  A    between atoms: _153  and  _154
REMARK   62  A    between atoms: _157  and  _159
REMARK   63  A    between atoms: _159  and  _160
REMARK   64  A    between atoms: _159  and  _162
REMARK   65  A    between atoms: _162  and  _163
REMARK   66  A    between atoms: _173  and  _175
REMARK   67  A    between atoms: _175  and  _176
REMARK   68  A    between atoms: _175  and  _178
REMARK   69  A    between atoms: _181  and  _183
REMARK   70  A    between atoms: _183  and  _184
REMARK   71  A    between atoms: _183  and  _186
REMARK   72  A    between atoms: _186  and  _187
REMARK   73  A    between atoms: _187  and  _188
REMARK   74  A    between atoms: _191  and  _193
REMARK   75  A    between atoms: _193  and  _194
REMARK   76  A    between atoms: _193  and  _196
REMARK   77  A    between atoms: _196  and  _197
REMARK   78  A    between atoms: _197  and  _198
REMARK   79  A    between atoms: _201  and  _203
REMARK   80  A    between atoms: _203  and  _204
REMARK   81  A    between atoms: _203  and  _206
REMARK   82  A    between atoms: _206  and  _207
REMARK   83  A    between atoms: _209  and  _211
REMARK   84  A    between atoms: _211  and  _212
REMARK   85  A    between atoms: _211  and  _214
REMARK   86  A    between atoms: _217  and  _219
REMARK   87  A    between atoms: _219  and  _220
REMARK   88  A    between atoms: _219  and  _222
REMARK   89  A    between atoms: _222  and  _223
REMARK   90  A    between atoms: _228  and  _230
REMARK   91  A    between atoms: _230  and  _231
REMARK   92  A    between atoms: _233  and  _235
REMARK   93  A    between atoms: _235  and  _236
REMARK   94  A    between atoms: _235  and  _238
REMARK   95  A    between atoms: _238  and  _239
REMARK   96  A    between atoms: _243  and  _244
REMARK   97  A    between atoms: _249  and  _251
REMARK   98  A    between atoms: _251  and  _252
REMARK   99  A    between atoms: _251  and  _254
REMARK  100  A    between atoms: _254  and  _255
REMARK  101  A    between atoms: _260  and  _261
REMARK  102  A    between atoms: _263  and  _265
REMARK  103  A    between atoms: _265  and  _266
REMARK  104  A    between atoms: _265  and  _268
REMARK  105  A    between atoms: _268  and  _269
REMARK  106  A    between atoms: _275  and  _277
REMARK  107  A    between atoms: _277  and  _278
REMARK  108  A    between atoms: _277  and  _280
REMARK  109  A    between atoms: _280  and  _281
REMARK  110  A    between atoms: _286  and  _288
REMARK  111  A    between atoms: _288  and  _289
REMARK  112  A    between atoms: _288  and  _291
REMARK  113  A    between atoms: _291  and  _292
REMARK  114  A    between atoms: _297  and  _298
REMARK  115  A    between atoms: _300  and  _302
REMARK  116  A    between atoms: _302  and  _303
REMARK  117  A    between atoms: _305  and  _307
REMARK  118  A    between atoms: _307  and  _308
REMARK  119  A    between atoms: _307  and  _310
REMARK  120  A    between atoms: _310  and  _311
REMARK  121  A    between atoms: _314  and  _316
REMARK  122  A    between atoms: _316  and  _317
REMARK  123  A    between atoms: _316  and  _319
REMARK  124  A    between atoms: _319  and  _320
REMARK  125  A    between atoms: _325  and  _327
REMARK  126  A    between atoms: _327  and  _328
REMARK  127  A    between atoms: _331  and  _332
REMARK  128  A    between atoms: _337  and  _339
REMARK  129  A    between atoms: _339  and  _340
REMARK  130  A    between atoms: _339  and  _342
REMARK  131  A    between atoms: _342  and  _343
REMARK  132  A    between atoms: _353  and  _355
REMARK  133  A    between atoms: _355  and  _356
REMARK  134  A    between atoms: _359  and  _361
REMARK  135  A    between atoms: _361  and  _362
REMARK  136  A    between atoms: _361  and  _364
REMARK  137  A    between atoms: _364  and  _365
REMARK  138  A    between atoms: _371  and  _373
REMARK  139  A    between atoms: _373  and  _374
REMARK  140  A    between atoms: _373  and  _376
REMARK  141  A    between atoms: _376  and  _377
REMARK  142  A    between atoms: _380  and  _382
REMARK  143  A    between atoms: _382  and  _383
REMARK  144  A    between atoms: _385  and  _387
REMARK  145  A    between atoms: _387  and  _388
REMARK  146  A    between atoms: _387  and  _390
REMARK  147  A    between atoms: _393  and  _395
REMARK  148  A    between atoms: _395  and  _396
REMARK  149  A    between atoms: _395  and  _398
REMARK  150  A    between atoms: _398  and  _399
REMARK  151  A    between atoms: _399  and  _400
REMARK  152  A    between atoms: _405  and  _407
REMARK  153  A    between atoms: _407  and  _408
REMARK  154  A    between atoms: _407  and  _410
REMARK  155  A    between atoms: _410  and  _411
REMARK  156  A    between atoms: _417  and  _419
REMARK  157  A    between atoms: _419  and  _420
REMARK  158  A    between atoms: _419  and  _422
REMARK  159  A    between atoms: _422  and  _423
REMARK  160  A    between atoms: _423  and  _424
REMARK  161  A    between atoms: _424  and  _425
REMARK  162  A    between atoms: _434  and  _436
REMARK  163  A    between atoms: _436  and  _437
REMARK  164  A    between atoms: _436  and  _439
REMARK  165  A    between atoms: _439  and  _440
REMARK  166  A    between atoms: _440  and  _441
REMARK  167  A    between atoms: _444  and  _445
REMARK  168  A    between atoms: _450  and  _452
REMARK  169  A    between atoms: _452  and  _453
REMARK  170  A    between atoms: _452  and  _455
REMARK  171  A    between atoms: _455  and  _456
REMARK  172  A    between atoms: _456  and  _457
REMARK  173  A    between atoms: _459  and  _461
REMARK  174  A    between atoms: _461  and  _462
REMARK  175  A    between atoms: _464  and  _466
REMARK  176  A    between atoms: _466  and  _467
REMARK  177  A    between atoms: _466  and  _469
REMARK  178  A    between atoms: _472  and  _474
REMARK  179  A    between atoms: _474  and  _475
REMARK  180  A    between atoms: _474  and  _477
REMARK  181  A    between atoms: _477  and  _478
REMARK  182  A    between atoms: _488  and  _490
REMARK  183  A    between atoms: _490  and  _491
REMARK  184  A    between atoms: _493  and  _495
REMARK  185  A    between atoms: _495  and  _496
REMARK  186  A    between atoms: _495  and  _498
REMARK  187  A    between atoms: _498  and  _499
REMARK  188  A    between atoms: _509  and  _511
REMARK  189  A    between atoms: _511  and  _512
REMARK                            x       y       z     vdW  Elec       q    Type
REMARK                         _______ _______ _______ _____ _____    ______ ____
ROOT
ATOM      1  C   ALA A   4      21.391  23.550  26.982  0.00  0.00    +0.241 C 
ATOM      2  O   ALA A   4      21.707  23.580  28.181  0.00  0.00    -0.273 OA
ATOM      3  N   GLU A   5      20.475  24.365  26.450  0.00  0.00    -0.297 N 
ATOM      4  H   GLU A   5      20.311  24.313  25.424  0.00  0.00    +0.150 HD
ENDROOT
BRANCH   1   5
ATOM      5  CA  ALA A   4      22.075  22.569  26.017  0.00  0.00    +0.149 C 
ATOM      6  CB  ALA A   4      23.593  22.837  25.951  0.00  0.00    +0.031 C 
BRANCH   5   9
ATOM      7  C   PHE A   3      20.333  22.006  24.351  0.00  0.00    +0.241 C 
ATOM      8  O   PHE A   3      19.550  21.581  25.209  0.00  0.00    -0.273 OA
ATOM      9  N   ALA A   4      21.505  22.571  24.646  0.00  0.00    -0.297 N 
ATOM     10  H   ALA A   4      22.042  23.032  23.884  0.00  0.00    +0.150 HD
BRANCH   7  11
ATOM     11  CA  PHE A   3      19.968  21.947  22.875  0.00  0.00    +0.153 C 
BRANCH  11  14
ATOM     12  C   PRO A   2      19.836  24.392  22.649  0.00  0.00    +0.241 C 
ATOM     13  O   PRO A   2      19.266  24.554  23.757  0.00  0.00    -0.273 OA
ATOM     14  N   PHE A   3      20.229  23.210  22.186  0.00  0.00    -0.297 N 
ATOM     15  H   PHE A   3      20.750  23.182  21.286  0.00  0.00    +0.150 HD
BRANCH  12  21
ATOM     16  C   VAL A   1      17.802  26.054  21.263  0.00  0.00    +0.241 C 
ATOM     17  N   PRO A   2      18.989  26.525  21.706  0.00  0.00    -0.272 N 
ATOM     18  CD  PRO A   2      19.357  27.851  22.252  0.00  0.00    +0.094 C 
ATOM     19  CG  PRO A   2      20.823  27.849  22.193  0.00  0.00    +0.024 C 
ATOM     20  CB  PRO A   2      21.278  26.426  22.255  0.00  0.00    +0.031 C 
ATOM     21  CA  PRO A   2      20.124  25.585  21.723  0.00  0.00    +0.152 C 
ATOM     22  O   VAL A   1      17.663  24.922  20.765  0.00  0.00    -0.273 OA
BRANCH  16  23
ATOM     23  CA  VAL A   1      16.594  26.975  21.360  0.00  0.00    +0.145 C 
BRANCH  23  24
ATOM     24  CB  VAL A   1      15.716  26.416  22.487  0.00  0.00    +0.025 C 
ATOM     25  CG2 VAL A   1      16.368  26.721  23.885  0.00  0.00    +0.002 C 
ATOM     26  CG1 VAL A   1      14.239  26.881  22.385  0.00  0.00    +0.002 C 
ENDBRANCH  23  24
BRANCH  23  27
ATOM     27  N   VAL A   1      15.972  26.905  20.037  0.00  0.00    -0.238 NA
ATOM     28  H   VAL A   1      16.013  25.996  19.533  0.00  0.00    +0.142 HD
ENDBRANCH  23  27
ENDBRANCH  16  23
ENDBRANCH  12  21
ENDBRANCH  11  14
BRANCH  11  29
ATOM     29  CB  PHE A   3      20.735  20.811  22.175  0.00  0.00    +0.055 C 
BRANCH  29  30
ATOM     30  CG  PHE A   3      20.735  19.512  22.932  0.00  0.00    -0.020 A 
ATOM     31  CD2 PHE A   3      21.775  19.183  23.781  0.00  0.00    -0.004 A 
ATOM     32  CE2 PHE A   3      21.776  17.984  24.498  0.00  0.00    -0.000 A 
ATOM     33  CZ  PHE A   3      20.736  17.113  24.348  0.00  0.00    -0.000 A 
ATOM     34  CE1 PHE A   3      19.678  17.429  23.485  0.00  0.00    -0.000 A 
ATOM     35  CD1 PHE A   3      19.677  18.623  22.795  0.00  0.00    -0.004 A 
ENDBRANCH  29  30
ENDBRANCH  11  29
ENDBRANCH   7  11
ENDBRANCH   5   9
ENDBRANCH   1   5
BRANCH   3  36
ATOM     36  CA  GLU A   5      19.692  25.323  27.222  0.00  0.00    +0.149 C 
BRANCH  36  37
ATOM     37  C   GLU A   5      18.217  24.923  27.449  0.00  0.00    +0.241 C 
ATOM     38  O   GLU A   5      17.543  25.468  28.349  0.00  0.00    -0.273 OA
ATOM     39  N   ILE A   6      17.711  23.964  26.674  0.00  0.00    -0.297 N 
ATOM     40  H   ILE A   6      18.343  23.427  26.046  0.00  0.00    +0.150 HD
BRANCH  39  41
ATOM     41  CA  ILE A   6      16.271  23.652  26.693  0.00  0.00    +0.149 C 
BRANCH  41  42
ATOM     42  C   ILE A   6      15.762  23.104  28.015  0.00  0.00    +0.241 C 
ATOM     43  N   LYS A   7      16.433  22.096  28.569  0.00  0.00    -0.298 N 
ATOM     44  H   LYS A   7      17.321  21.774  28.133  0.00  0.00    +0.150 HD
ATOM     45  O   ILE A   6      14.728  23.577  28.508  0.00  0.00    -0.273 OA
BRANCH  43  46
ATOM     46  CA  LYS A   7      15.943  21.428  29.786  0.00  0.00    +0.137 C 
BRANCH  46  47
ATOM     47  C   LYS A   7      15.715  22.425  30.943  0.00  0.00    +0.227 C 
ATOM     48  O   LYS A   7      14.654  22.422  31.568  0.00  0.00    -0.286 OA
ENDBRANCH  46  47
BRANCH  46  49
ATOM     49  CB  LYS A   7      16.881  20.280  30.216  0.00  0.00    +0.028 C 
BRANCH  49  50
ATOM     50  CG  LYS A   7      16.379  19.513  31.475  0.00  0.00    -0.000 C 
BRANCH  50  51
ATOM     51  CD  LYS A   7      17.041  18.146  31.725  0.00  0.00    -0.024 C 
BRANCH  51  52
ATOM     52  CE  LYS A   7      18.556  18.185  31.870  0.00  0.00    -0.086 C 
BRANCH  52  53
ATOM     53  NZ  LYS A   7      19.075  19.157  32.868  0.00  0.00    +0.380 N 
ATOM     54  HZ1 LYS A   7      18.694  18.924  33.807  0.00  0.00    -0.089 HD
ATOM     55  HZ2 LYS A   7      20.114  19.107  32.891  0.00  0.00    -0.089 HD
ATOM     56  HZ3 LYS A   7      18.779  20.118  32.601  0.00  0.00    -0.089 HD
ENDBRANCH  52  53
ENDBRANCH  51  52
ENDBRANCH  50  51
ENDBRANCH  49  50
ENDBRANCH  46  49
ENDBRANCH  43  46
ENDBRANCH  41  42
BRANCH  41  57
ATOM     57  CB  ILE A   6      15.846  22.652  25.577  0.00  0.00    +0.027 C 
ATOM     58  CG2 ILE A   6      14.380  22.234  25.741  0.00  0.00    +0.002 C 
BRANCH  57  59
ATOM     59  CG1 ILE A   6      16.008  23.257  24.198  0.00  0.00    +0.002 C 
ATOM     60  CD1 ILE A   6      15.767  22.232  23.047  0.00  0.00    +0.000 C 
ENDBRANCH  57  59
ENDBRANCH  41  57
ENDBRANCH  39  41
ENDBRANCH  36  37
BRANCH  36  61
ATOM     61  CB  GLU A   5      19.762  26.678  26.506  0.00  0.00    +0.041 C 
BRANCH  61  62
ATOM     62  CG  GLU A   5      21.145  27.280  26.551  0.00  0.00    +0.116 C 
BRANCH  62  63
ATOM     63  CD  GLU A   5      21.199  28.696  26.060  0.00  0.00    +0.365 C 
ATOM     64  OE2 GLU A   5      20.158  29.365  25.940  0.00  0.00    -0.246 OA
ATOM     65  OE1 GLU A   5      22.307  29.158  25.767  0.00  0.00    -0.246 OA
ENDBRANCH  62  63
ENDBRANCH  61  62
ENDBRANCH  36  61
ENDBRANCH   3  36
TORSDOF 26
REMARK  Name = ../refined-set-2016/2gh9/2gh9_pocket.pdb
REMARK  189 active torsions:
REMARK  status: ('A' for Active; 'I' for Inactive)
REMARK    1  A    between atoms: _1  and  _3
REMARK    2  A    between atoms: _3  and  _4
REMARK    3  A    between atoms: _3  and  _6
REMARK    4  A    between atoms: _6  and  _7
REMARK    5  A    between atoms: _10  and  _12
REMARK    6  A    between atoms: _12  and  _13
REMARK    7  A    between atoms: _12  and  _15
REMARK    8  A    between atoms: _15  and  _16
REMARK    9  A    between atoms: _21  and  _23
REMARK   10  A    between atoms: _23  and  _24
REMARK   11  A    between atoms: _23  and  _26
REMARK   12  A    between atoms: _26  and  _27
REMARK   13  A    between atoms: _33  and  _35
REMARK   14  A    between atoms: _35  and  _36
REMARK   15  A    between atoms: _38  and  _40
REMARK   16  A    between atoms: _40  and  _41
REMARK   17  A    between atoms: _40  and  _43
REMARK   18  A    between atoms: _43  and  _44
REMARK   19  A    between atoms: _44  and  _45
REMARK   20  A    between atoms: _48  and  _50
REMARK   21  A    between atoms: _50  and  _51
REMARK   22  A    between atoms: _50  and  _53
REMARK   23  A    between atoms: _57  and  _58
REMARK   24  A    between atoms: _63  and  _65
REMARK   25  A    between atoms: _65  and  _66
REMARK   26  A    between atoms: _65  and  _68
REMARK   27  A    between atoms: _68  and  _69
REMARK   28  A    between atoms: _75  and  _77
REMARK   29  A    between atoms: _77  and  _78
REMARK   30  A    between atoms: _81  and  _83
REMARK   31  A    between atoms: _83  and  _84
REMARK   32  A    between atoms: _83  and  _86
REMARK   33  A    between atoms: _86  and  _87
REMARK   34  A    between atoms: _87  and  _88
REMARK   35  A    between atoms: _91  and  _93
REMARK   36  A    between atoms: _93  and  _94
REMARK   37  A    between atoms: _93  and  _96
REMARK   38  A    between atoms: _96  and  _97
REMARK   39  A    between atoms: _100  and  _102
REMARK   40  A    between atoms: _102  and  _103
REMARK   41  A    between atoms: _102  and  _105
REMARK   42  A    between atoms: _105  and  _106
REMARK   43  A    between atoms: _106  and  _107
REMARK   44  A    between atoms: _107  and  _108
REMARK   45  A    between atoms: _108  and  _109
REMARK   46  A    between atoms: _113  and  _115
REMARK   47  A    between atoms: _115  and  _116
REMARK   48  A    between atoms: _115  and  _118
REMARK   49  A    between atoms: _118  and  _119
REMARK   50  A    between atoms: _122  and  _124
REMARK   51  A    between atoms: _124  and  _125
REMARK   52  A    between atoms: _124  and  _127
REMARK   53  A    between atoms: _131  and  _132
REMARK   54  A    between atoms: _137  and  _139
REMARK   55  A    between atoms: _139  and  _140
REMARK   56  A    between atoms: _139  and  _142
REMARK   57  A    between atoms: _142  and  _143
REMARK   58  A    between atoms: _148  and  _150
REMARK   59  A    between atoms: _150  and  _151
REMARK   60  A    between atoms: _150  and  _153
REMARK   61  A    between atoms: _153  and  _154
REMARK   62  A    between atoms: _157  and  _159
REMARK   63  A    between atoms: _159  and  _160
REMARK   64  A    between atoms: _159  and  _162
REMARK   65  A    between atoms: _162  and  _163
REMARK   66  A    between atoms: _173  and  _175
REMARK   67  A    between atoms: _175  and  _176
REMARK   68  A    between atoms: _175  and  _178
REMARK   69  A    between atoms: _181  and  _183
REMARK   70  A    between atoms: _183  and  _184
REMARK   71  A    between atoms: _183  and  _186
REMARK   72  A    between atoms: _186  and  _187
REMARK   73  A    between atoms: _187  and  _188
REMARK   74  A    between atoms: _191  and  _193
REMARK   75  A    between atoms: _193  and  _194
REMARK   76  A    between atoms: _193  and  _196
REMARK   77  A    between atoms: _196  and  _197
REMARK   78  A    between atoms: _197  and  _198
REMARK   79  A    between atoms: _201  and  _203
REMARK   80  A    between atoms: _203  and  _204
REMARK   81  A    between atoms: _203  and  _206
REMARK   82  A    between atoms: _206  and  _207
REMARK   83  A    between atoms: _209  and  _211
REMARK   84  A    between atoms: _211  and  _212
REMARK   85  A    between atoms: _211  and  _214
REMARK   86  A    between atoms: _217  and  _219
REMARK   87  A    between atoms: _219  and  _220
REMARK   88  A    between atoms: _219  and  _222
REMARK   89  A    between atoms: _222  and  _223
REMARK   90  A    between atoms: _228  and  _230
REMARK   91  A    between atoms: _230  and  _231
REMARK   92  A    between atoms: _233  and  _235
REMARK   93  A    between atoms: _235  and  _236
REMARK   94  A    between atoms: _235  and  _238
REMARK   95  A    between atoms: _238  and  _239
REMARK   96  A    between atoms: _243  and  _244
REMARK   97  A    between atoms: _249  and  _251
REMARK   98  A    between atoms: _251  and  _252
REMARK   99  A    between atoms: _251  and  _254
REMARK  100  A    between atoms: _254  and  _255
REMARK  101  A    between atoms: _260  and  _261
REMARK  102  A    between atoms: _263  and  _265
REMARK  103  A    between atoms: _265  and  _266
REMARK  104  A    between atoms: _265  and  _268
REMARK  105  A    between atoms: _268  and  _269
REMARK  106  A    between atoms: _275  and  _277
REMARK  107  A    between atoms: _277  and  _278
REMARK  108  A    between atoms: _277  and  _280
REMARK  109  A    between atoms: _280  and  _281
REMARK  110  A    between atoms: _286  and  _288
REMARK  111  A    between atoms: _288  and  _289
REMARK  112  A    between atoms: _288  and  _291
REMARK  113  A    between atoms: _291  and  _292
REMARK  114  A    between atoms: _297  and  _298
REMARK  115  A    between atoms: _300  and  _302
REMARK  116  A    between atoms: _302  and  _303
REMARK  117  A    between atoms: _305  and  _307
REMARK  118  A    between atoms: _307  and  _308
REMARK  119  A    between atoms: _307  and  _310
REMARK  120  A    between atoms: _310  and  _311
REMARK  121  A    between atoms: _314  and  _316
REMARK  122  A    between atoms: _316  and  _317
REMARK  123  A    between atoms: _316  and  _319
REMARK  124  A    between atoms: _319  and  _320
REMARK  125  A    between atoms: _325  and  _327
REMARK  126  A    between atoms: _327  and  _328
REMARK  127  A    between atoms: _331  and  _332
REMARK  128  A    between atoms: _337  and  _339
REMARK  129  A    between atoms: _339  and  _340
REMARK  130  A    between atoms: _339  and  _342
REMARK  131  A    between atoms: _342  and  _343
REMARK  132  A    between atoms: _353  and  _355
REMARK  133  A    between atoms: _355  and  _356
REMARK  134  A    between atoms: _359  and  _361
REMARK  135  A    between atoms: _361  and  _362
REMARK  136  A    between atoms: _361  and  _364
REMARK  137  A    between atoms: _364  and  _365
REMARK  138  A    between atoms: _371  and  _373
REMARK  139  A    between atoms: _373  and  _374
REMARK  140  A    between atoms: _373  and  _376
REMARK  141  A    between atoms: _376  and  _377
REMARK  142  A    between atoms: _380  and  _382
REMARK  143  A    between atoms: _382  and  _383
REMARK  144  A    between atoms: _385  and  _387
REMARK  145  A    between atoms: _387  and  _388
REMARK  146  A    between atoms: _387  and  _390
REMARK  147  A    between atoms: _393  and  _395
REMARK  148  A    between atoms: _395  and  _396
REMARK  149  A    between atoms: _395  and  _398
REMARK  150  A    between atoms: _398  and  _399
REMARK  151  A    between atoms: _399  and  _400
REMARK  152  A    between atoms: _405  and  _407
REMARK  153  A    between atoms: _407  and  _408
REMARK  154  A    between atoms: _407  and  _410
REMARK  155  A    between atoms: _410  and  _411
REMARK  156  A    between atoms: _417  and  _419
REMARK  157  A    between atoms: _419  and  _420
REMARK  158  A    between atoms: _419  and  _422
REMARK  159  A    between atoms: _422  and  _423
REMARK  160  A    between atoms: _423  and  _424
REMARK  161  A    between atoms: _424  and  _425
REMARK  162  A    between atoms: _434  and  _436
REMARK  163  A    between atoms: _436  and  _437
REMARK  164  A    between atoms: _436  and  _439
REMARK  165  A    between atoms: _439  and  _440
REMARK  166  A    between atoms: _440  and  _441
REMARK  167  A    between atoms: _444  and  _445
REMARK  168  A    between atoms: _450  and  _452
REMARK  169  A    between atoms: _452  and  _453
REMARK  170  A    between atoms: _452  and  _455
REMARK  171  A    between atoms: _455  and  _456
REMARK  172  A    between atoms: _456  and  _457
REMARK  173  A    between atoms: _459  and  _461
REMARK  174  A    between atoms: _461  and  _462
REMARK  175  A    between atoms: _464  and  _466
REMARK  176  A    between atoms: _466  and  _467
REMARK  177  A    between atoms: _466  and  _469
REMARK  178  A    between atoms: _472  and  _474
REMARK  179  A    between atoms: _474  and  _475
REMARK  180  A    between atoms: _474  and  _477
REMARK  181  A    between atoms: _477  and  _478
REMARK  182  A    between atoms: _488  and  _490
REMARK  183  A    between atoms: _490  and  _491
REMARK  184  A    between atoms: _493  and  _495
REMARK  185  A    between atoms: _495  and  _496
REMARK  186  A    between atoms: _495  and  _498
REMARK  187  A    between atoms: _498  and  _499
REMARK  188  A    between atoms: _509  and  _511
REMARK  189  A    between atoms: _511  and  _512
REMARK                            x       y       z     vdW  Elec       q    Type
REMARK                         _______ _______ _______ _____ _____    ______ ____
ROOT
ATOM      1  C   HIS A   4      15.746  10.538  28.348  0.00  0.00    +0.241 C 
ATOM      2  O   HIS A   4      15.112  10.284  29.369  0.00  0.00    -0.273 OA
ATOM      3  N   ASP A   5      17.041  10.874  28.377  0.00  0.00    -0.297 N 
ATOM      4  H   ASP A   5      17.558  11.063  27.495  0.00  0.00    +0.150 HD
ENDROOT
BRANCH   3   5
ATOM      5  CA  ASP A   5      17.720  10.971  29.674  0.00  0.00    +0.160 C 
BRANCH   5   6
ATOM      6  C   ASP A   5      17.139  12.103  30.533  0.00  0.00    +0.241 C 
ATOM      7  O   ASP A   5      17.243  12.071  31.758  0.00  0.00    -0.273 OA
ATOM      8  N   TRP A   6      16.498  13.079  29.896  0.00  0.00    -0.297 N 
ATOM      9  H   TRP A   6      16.461  13.055  28.857  0.00  0.00    +0.150 HD
BRANCH   8  10
ATOM     10  CA  TRP A   6      15.842  14.187  30.596  0.00  0.00    +0.153 C 
BRANCH  10  11
ATOM     11  C   TRP A   6      14.509  13.826  31.306  0.00  0.00    +0.241 C 
ATOM     12  O   TRP A   6      14.009  14.638  32.089  0.00  0.00    -0.273 OA
ATOM     13  N   VAL A   7      13.956  12.638  31.041  0.00  0.00    -0.298 N 
ATOM     14  H   VAL A   7      14.528  11.918  30.554  0.00  0.00    +0.150 HD
BRANCH  13  15
ATOM     15  CA  VAL A   7      12.564  12.307  31.413  0.00  0.00    +0.137 C 
BRANCH  15  16
ATOM     16  CB  VAL A   7      12.051  11.018  30.690  0.00  0.00    +0.026 C 
ATOM     17  CG2 VAL A   7      10.780  10.426  31.347  0.00  0.00    +0.002 C 
ATOM     18  CG1 VAL A   7      11.769  11.337  29.226  0.00  0.00    +0.002 C 
ENDBRANCH  15  16
BRANCH  15  19
ATOM     19  C   VAL A   7      12.316  12.266  32.928  0.00  0.00    +0.227 C 
ATOM     20  O   VAL A   7      11.387  12.939  33.421  0.00  0.00    -0.286 OA
ENDBRANCH  15  19
ENDBRANCH  13  15
ENDBRANCH  10  11
BRANCH  10  21
ATOM     21  CB  TRP A   6      15.508  15.292  29.604  0.00  0.00    +0.057 C 
BRANCH  21  22
ATOM     22  CG  TRP A   6      16.651  15.975  28.960  0.00  0.00    -0.002 A 
ATOM     23  CD1 TRP A   6      17.988  15.700  29.117  0.00  0.00    +0.068 A 
ATOM     24  NE1 TRP A   6      18.732  16.556  28.352  0.00  0.00    -0.352 N 
ATOM     25  HE1 TRP A   6      19.770  16.563  28.291  0.00  0.00    +0.166 HD
ATOM     26  CE2 TRP A   6      17.889  17.404  27.678  0.00  0.00    +0.056 A 
ATOM     27  CZ2 TRP A   6      18.176  18.427  26.773  0.00  0.00    +0.017 A 
ATOM     28  CH2 TRP A   6      17.115  19.120  26.234  0.00  0.00    +0.001 A 
ATOM     29  CZ3 TRP A   6      15.788  18.794  26.566  0.00  0.00    +0.000 A 
ATOM     30  CE3 TRP A   6      15.506  17.777  27.470  0.00  0.00    +0.001 A 
ATOM     31  CD2 TRP A   6      16.568  17.054  28.030  0.00  0.00    +0.013 A 
ENDBRANCH  21  22
ENDBRANCH  10  21
ENDBRANCH   8  10
ENDBRANCH   5   6
BRANCH   5  32
ATOM     32  CB  ASP A   5      19.248  11.062  29.520  0.00  0.00    +0.143 C 
BRANCH  32  33
ATOM     33  CG  ASP A   5      19.695  12.305  28.829  0.00  0.00    +0.367 C 
ATOM     34  OD2 ASP A   5      20.367  13.109  29.513  0.00  0.00    -0.246 OA
ATOM     35  OD1 ASP A   5      19.394  12.473  27.600  0.00  0.00    -0.246 OA
ENDBRANCH  32  33
ENDBRANCH   5  32
ENDBRANCH   3   5
BRANCH   1  36
ATOM     36  CA  HIS A   4      15.048  10.478  26.999  0.00  0.00    +0.155 C 
BRANCH  36  39
ATOM     37  C   PRO A   3      15.816  12.494  25.900  0.00  0.00    +0.241 C 
ATOM     38  O   PRO A   3      15.480  13.199  26.854  0.00  0.00    -0.273 OA
ATOM     39  N   HIS A   4      15.688  11.185  25.893  0.00  0.00    -0.297 N 
ATOM     40  H   HIS A   4      16.050  10.642  25.083  0.00  0.00    +0.150 HD
BRANCH  37  46
ATOM     41  C   VAL A   2      14.532  14.555  23.987  0.00  0.00    +0.244 C 
ATOM     42  N   PRO A   3      15.791  14.433  24.458  0.00  0.00    -0.272 N 
ATOM     43  CD  PRO A   3      16.697  15.509  24.879  0.00  0.00    +0.094 C 
ATOM     44  CG  PRO A   3      17.877  14.771  25.467  0.00  0.00    +0.024 C 
ATOM     45  CB  PRO A   3      17.887  13.430  24.830  0.00  0.00    +0.031 C 
ATOM     46  CA  PRO A   3      16.392  13.118  24.644  0.00  0.00    +0.152 C 
ATOM     47  O   VAL A   2      13.874  13.593  23.605  0.00  0.00    -0.273 OA
BRANCH  41  48
ATOM     48  CA  VAL A   2      13.918  15.949  23.992  0.00  0.00    +0.149 C 
BRANCH  48  50
ATOM     49  C   THR A   1      13.225  16.883  21.857  0.00  0.00    +0.241 C 
ATOM     50  N   VAL A   2      12.977  16.088  22.889  0.00  0.00    -0.297 N 
ATOM     51  H   VAL A   2      12.087  15.550  22.911  0.00  0.00    +0.150 HD
ATOM     52  O   THR A   1      14.177  17.679  21.839  0.00  0.00    -0.274 OA
BRANCH  49  53
ATOM     53  CA  THR A   1      12.276  16.757  20.659  0.00  0.00    +0.172 C 
BRANCH  53  54
ATOM     54  N   THR A   1      12.520  17.865  19.746  0.00  0.00    -0.236 NA
ATOM     55  H   THR A   1      13.505  17.994  19.440  0.00  0.00    +0.142 HD
ENDBRANCH  53  54
BRANCH  53  56
ATOM     56  CB  THR A   1      12.574  15.411  19.967  0.00  0.00    +0.135 C 
ATOM     57  CG2 THR A   1      11.398  15.012  19.023  0.00  0.00    +0.034 C 
BRANCH  56  58
ATOM     58  OG1 THR A   1      13.807  15.515  19.220  0.00  0.00    -0.383 OA
ATOM     59  HG1 THR A   1      14.547  15.740  19.837  0.00  0.00    +0.210 HD
ENDBRANCH  56  58
ENDBRANCH  53  56
ENDBRANCH  49  53
ENDBRANCH  48  50
BRANCH  48  60
ATOM     60  CB  VAL A   2      13.237  16.176  25.394  0.00  0.00    +0.027 C 
ATOM     61  CG2 VAL A   2      12.175  15.040  25.718  0.00  0.00    +0.002 C 
ATOM     62  CG1 VAL A   2      12.637  17.597  25.500  0.00  0.00    +0.002 C 
ENDBRANCH  48  60
ENDBRANCH  41  48
ENDBRANCH  37  46
ENDBRANCH  36  39
BRANCH  36  63
ATOM     63  CB  HIS A   4      14.788   9.037  26.617  0.00  0.00    +0.076 C 
BRANCH  63  64
ATOM     64  CG  HIS A   4      15.984   8.136  26.710  0.00  0.00    +0.082 A 
ATOM     65  CD2 HIS A   4      16.482   7.420  27.752  0.00  0.00    +0.115 A 
ATOM     66  NE2 HIS A   4      17.560   6.709  27.282  0.00  0.00    -0.221 NA
ATOM     67  CE1 HIS A   4      17.705   6.965  25.991  0.00  0.00    +0.199 A 
ATOM     68  ND1 HIS A   4      16.771   7.829  25.621  0.00  0.00    -0.227 NA
ENDBRANCH  63  64
ENDBRANCH  36  63
ENDBRANCH   1  36
TORSDOF 23
REMARK  Name = ../refined-set-2016/2gh9/2gh9_pocket.pdb
REMARK  189 active torsions:
REMARK  status: ('A' for Active; 'I' for Inactive)
REMARK    1  A    between atoms: _1  and  _3
REMARK    2  A    between atoms: _3  and  _4
REMARK    3  A    between atoms: _3  and  _6
REMARK    4  A    between atoms: _6  and  _7
REMARK    5  A    between atoms: _10  and  _12
REMARK    6  A    between atoms: _12  and  _13
REMARK    7  A    between atoms: _12  and  _15
REMARK    8  A    between atoms: _15  and  _16
REMARK    9  A    between atoms: _21  and  _23
REMARK   10  A    between atoms: _23  and  _24
REMARK   11  A    between atoms: _23  and  _26
REMARK   12  A    between atoms: _26  and  _27
REMARK   13  A    between atoms: _33  and  _35
REMARK   14  A    between atoms: _35  and  _36
REMARK   15  A    between atoms: _38  and  _40
REMARK   16  A    between atoms: _40  and  _41
REMARK   17  A    between atoms: _40  and  _43
REMARK   18  A    between atoms: _43  and  _44
REMARK   19  A    between atoms: _44  and  _45
REMARK   20  A    between atoms: _48  and  _50
REMARK   21  A    between atoms: _50  and  _51
REMARK   22  A    between atoms: _50  and  _53
REMARK   23  A    between atoms: _57  and  _58
REMARK   24  A    between atoms: _63  and  _65
REMARK   25  A    between atoms: _65  and  _66
REMARK   26  A    between atoms: _65  and  _68
REMARK   27  A    between atoms: _68  and  _69
REMARK   28  A    between atoms: _75  and  _77
REMARK   29  A    between atoms: _77  and  _78
REMARK   30  A    between atoms: _81  and  _83
REMARK   31  A    between atoms: _83  and  _84
REMARK   32  A    between atoms: _83  and  _86
REMARK   33  A    between atoms: _86  and  _87
REMARK   34  A    between atoms: _87  and  _88
REMARK   35  A    between atoms: _91  and  _93
REMARK   36  A    between atoms: _93  and  _94
REMARK   37  A    between atoms: _93  and  _96
REMARK   38  A    between atoms: _96  and  _97
REMARK   39  A    between atoms: _100  and  _102
REMARK   40  A    between atoms: _102  and  _103
REMARK   41  A    between atoms: _102  and  _105
REMARK   42  A    between atoms: _105  and  _106
REMARK   43  A    between atoms: _106  and  _107
REMARK   44  A    between atoms: _107  and  _108
REMARK   45  A    between atoms: _108  and  _109
REMARK   46  A    between atoms: _113  and  _115
REMARK   47  A    between atoms: _115  and  _116
REMARK   48  A    between atoms: _115  and  _118
REMARK   49  A    between atoms: _118  and  _119
REMARK   50  A    between atoms: _122  and  _124
REMARK   51  A    between atoms: _124  and  _125
REMARK   52  A    between atoms: _124  and  _127
REMARK   53  A    between atoms: _131  and  _132
REMARK   54  A    between atoms: _137  and  _139
REMARK   55  A    between atoms: _139  and  _140
REMARK   56  A    between atoms: _139  and  _142
REMARK   57  A    between atoms: _142  and  _143
REMARK   58  A    between atoms: _148  and  _150
REMARK   59  A    between atoms: _150  and  _151
REMARK   60  A    between atoms: _150  and  _153
REMARK   61  A    between atoms: _153  and  _154
REMARK   62  A    between atoms: _157  and  _159
REMARK   63  A    between atoms: _159  and  _160
REMARK   64  A    between atoms: _159  and  _162
REMARK   65  A    between atoms: _162  and  _163
REMARK   66  A    between atoms: _173  and  _175
REMARK   67  A    between atoms: _175  and  _176
REMARK   68  A    between atoms: _175  and  _178
REMARK   69  A    between atoms: _181  and  _183
REMARK   70  A    between atoms: _183  and  _184
REMARK   71  A    between atoms: _183  and  _186
REMARK   72  A    between atoms: _186  and  _187
REMARK   73  A    between atoms: _187  and  _188
REMARK   74  A    between atoms: _191  and  _193
REMARK   75  A    between atoms: _193  and  _194
REMARK   76  A    between atoms: _193  and  _196
REMARK   77  A    between atoms: _196  and  _197
REMARK   78  A    between atoms: _197  and  _198
REMARK   79  A    between atoms: _201  and  _203
REMARK   80  A    between atoms: _203  and  _204
REMARK   81  A    between atoms: _203  and  _206
REMARK   82  A    between atoms: _206  and  _207
REMARK   83  A    between atoms: _209  and  _211
REMARK   84  A    between atoms: _211  and  _212
REMARK   85  A    between atoms: _211  and  _214
REMARK   86  A    between atoms: _217  and  _219
REMARK   87  A    between atoms: _219  and  _220
REMARK   88  A    between atoms: _219  and  _222
REMARK   89  A    between atoms: _222  and  _223
REMARK   90  A    between atoms: _228  and  _230
REMARK   91  A    between atoms: _230  and  _231
REMARK   92  A    between atoms: _233  and  _235
REMARK   93  A    between atoms: _235  and  _236
REMARK   94  A    between atoms: _235  and  _238
REMARK   95  A    between atoms: _238  and  _239
REMARK   96  A    between atoms: _243  and  _244
REMARK   97  A    between atoms: _249  and  _251
REMARK   98  A    between atoms: _251  and  _252
REMARK   99  A    between atoms: _251  and  _254
REMARK  100  A    between atoms: _254  and  _255
REMARK  101  A    between atoms: _260  and  _261
REMARK  102  A    between atoms: _263  and  _265
REMARK  103  A    between atoms: _265  and  _266
REMARK  104  A    between atoms: _265  and  _268
REMARK  105  A    between atoms: _268  and  _269
REMARK  106  A    between atoms: _275  and  _277
REMARK  107  A    between atoms: _277  and  _278
REMARK  108  A    between atoms: _277  and  _280
REMARK  109  A    between atoms: _280  and  _281
REMARK  110  A    between atoms: _286  and  _288
REMARK  111  A    between atoms: _288  and  _289
REMARK  112  A    between atoms: _288  and  _291
REMARK  113  A    between atoms: _291  and  _292
REMARK  114  A    between atoms: _297  and  _298
REMARK  115  A    between atoms: _300  and  _302
REMARK  116  A    between atoms: _302  and  _303
REMARK  117  A    between atoms: _305  and  _307
REMARK  118  A    between atoms: _307  and  _308
REMARK  119  A    between atoms: _307  and  _310
REMARK  120  A    between atoms: _310  and  _311
REMARK  121  A    between atoms: _314  and  _316
REMARK  122  A    between atoms: _316  and  _317
REMARK  123  A    between atoms: _316  and  _319
REMARK  124  A    between atoms: _319  and  _320
REMARK  125  A    between atoms: _325  and  _327
REMARK  126  A    between atoms: _327  and  _328
REMARK  127  A    between atoms: _331  and  _332
REMARK  128  A    between atoms: _337  and  _339
REMARK  129  A    between atoms: _339  and  _340
REMARK  130  A    between atoms: _339  and  _342
REMARK  131  A    between atoms: _342  and  _343
REMARK  132  A    between atoms: _353  and  _355
REMARK  133  A    between atoms: _355  and  _356
REMARK  134  A    between atoms: _359  and  _361
REMARK  135  A    between atoms: _361  and  _362
REMARK  136  A    between atoms: _361  and  _364
REMARK  137  A    between atoms: _364  and  _365
REMARK  138  A    between atoms: _371  and  _373
REMARK  139  A    between atoms: _373  and  _374
REMARK  140  A    between atoms: _373  and  _376
REMARK  141  A    between atoms: _376  and  _377
REMARK  142  A    between atoms: _380  and  _382
REMARK  143  A    between atoms: _382  and  _383
REMARK  144  A    between atoms: _385  and  _387
REMARK  145  A    between atoms: _387  and  _388
REMARK  146  A    between atoms: _387  and  _390
REMARK  147  A    between atoms: _393  and  _395
REMARK  148  A    between atoms: _395  and  _396
REMARK  149  A    between atoms: _395  and  _398
REMARK  150  A    between atoms: _398  and  _399
REMARK  151  A    between atoms: _399  and  _400
REMARK  152  A    between atoms: _405  and  _407
REMARK  153  A    between atoms: _407  and  _408
REMARK  154  A    between atoms: _407  and  _410
REMARK  155  A    between atoms: _410  and  _411
REMARK  156  A    between atoms: _417  and  _419
REMARK  157  A    between atoms: _419  and  _420
REMARK  158  A    between atoms: _419  and  _422
REMARK  159  A    between atoms: _422  and  _423
REMARK  160  A    between atoms: _423  and  _424
REMARK  161  A    between atoms: _424  and  _425
REMARK  162  A    between atoms: _434  and  _436
REMARK  163  A    between atoms: _436  and  _437
REMARK  164  A    between atoms: _436  and  _439
REMARK  165  A    between atoms: _439  and  _440
REMARK  166  A    between atoms: _440  and  _441
REMARK  167  A    between atoms: _444  and  _445
REMARK  168  A    between atoms: _450  and  _452
REMARK  169  A    between atoms: _452  and  _453
REMARK  170  A    between atoms: _452  and  _455
REMARK  171  A    between atoms: _455  and  _456
REMARK  172  A    between atoms: _456  and  _457
REMARK  173  A    between atoms: _459  and  _461
REMARK  174  A    between atoms: _461  and  _462
REMARK  175  A    between atoms: _464  and  _466
REMARK  176  A    between atoms: _466  and  _467
REMARK  177  A    between atoms: _466  and  _469
REMARK  178  A    between atoms: _472  and  _474
REMARK  179  A    between atoms: _474  and  _475
REMARK  180  A    between atoms: _474  and  _477
REMARK  181  A    between atoms: _477  and  _478
REMARK  182  A    between atoms: _488  and  _490
REMARK  183  A    between atoms: _490  and  _491
REMARK  184  A    between atoms: _493  and  _495
REMARK  185  A    between atoms: _495  and  _496
REMARK  186  A    between atoms: _495  and  _498
REMARK  187  A    between atoms: _498  and  _499
REMARK  188  A    between atoms: _509  and  _511
REMARK  189  A    between atoms: _511  and  _512
REMARK                            x       y       z     vdW  Elec       q    Type
REMARK                         _______ _______ _______ _____ _____    ______ ____
ROOT
ATOM      1  CA  GLU A   1      14.201  14.952  36.107  0.00  0.00    +0.134 C 
ENDROOT
BRANCH   1   2
ATOM      2  N   GLU A   1      14.095  13.619  35.519  0.00  0.00    -0.239 NA
ATOM      3  H   GLU A   1      14.821  13.308  34.842  0.00  0.00    +0.142 HD
ENDBRANCH   1   2
BRANCH   1   4
ATOM      4  C   GLU A   1      13.023  15.871  35.767  0.00  0.00    +0.224 C 
ATOM      5  O   GLU A   1      12.548  16.629  36.624  0.00  0.00    -0.287 OA
ENDBRANCH   1   4
BRANCH   1   6
ATOM      6  CB  GLU A   1      15.501  15.625  35.676  0.00  0.00    +0.037 C 
BRANCH   6   7
ATOM      7  CG  GLU A   1      15.715  17.004  36.238  0.00  0.00    +0.116 C 
BRANCH   7   8
ATOM      8  CD  GLU A   1      16.968  17.658  35.751  0.00  0.00    +0.365 C 
ATOM      9  OE2 GLU A   1      17.152  18.844  36.078  0.00  0.00    -0.246 OA
ATOM     10  OE1 GLU A   1      17.777  16.995  35.050  0.00  0.00    -0.246 OA
ENDBRANCH   7   8
ENDBRANCH   6   7
ENDBRANCH   1   6
TORSDOF 5
REMARK  Name = ../refined-set-2016/2gh9/2gh9_pocket.pdb
REMARK  189 active torsions:
REMARK  status: ('A' for Active; 'I' for Inactive)
REMARK    1  A    between atoms: _1  and  _3
REMARK    2  A    between atoms: _3  and  _4
REMARK    3  A    between atoms: _3  and  _6
REMARK    4  A    between atoms: _6  and  _7
REMARK    5  A    between atoms: _10  and  _12
REMARK    6  A    between atoms: _12  and  _13
REMARK    7  A    between atoms: _12  and  _15
REMARK    8  A    between atoms: _15  and  _16
REMARK    9  A    between atoms: _21  and  _23
REMARK   10  A    between atoms: _23  and  _24
REMARK   11  A    between atoms: _23  and  _26
REMARK   12  A    between atoms: _26  and  _27
REMARK   13  A    between atoms: _33  and  _35
REMARK   14  A    between atoms: _35  and  _36
REMARK   15  A    between atoms: _38  and  _40
REMARK   16  A    between atoms: _40  and  _41
REMARK   17  A    between atoms: _40  and  _43
REMARK   18  A    between atoms: _43  and  _44
REMARK   19  A    between atoms: _44  and  _45
REMARK   20  A    between atoms: _48  and  _50
REMARK   21  A    between atoms: _50  and  _51
REMARK   22  A    between atoms: _50  and  _53
REMARK   23  A    between atoms: _57  and  _58
REMARK   24  A    between atoms: _63  and  _65
REMARK   25  A    between atoms: _65  and  _66
REMARK   26  A    between atoms: _65  and  _68
REMARK   27  A    between atoms: _68  and  _69
REMARK   28  A    between atoms: _75  and  _77
REMARK   29  A    between atoms: _77  and  _78
REMARK   30  A    between atoms: _81  and  _83
REMARK   31  A    between atoms: _83  and  _84
REMARK   32  A    between atoms: _83  and  _86
REMARK   33  A    between atoms: _86  and  _87
REMARK   34  A    between atoms: _87  and  _88
REMARK   35  A    between atoms: _91  and  _93
REMARK   36  A    between atoms: _93  and  _94
REMARK   37  A    between atoms: _93  and  _96
REMARK   38  A    between atoms: _96  and  _97
REMARK   39  A    between atoms: _100  and  _102
REMARK   40  A    between atoms: _102  and  _103
REMARK   41  A    between atoms: _102  and  _105
REMARK   42  A    between atoms: _105  and  _106
REMARK   43  A    between atoms: _106  and  _107
REMARK   44  A    between atoms: _107  and  _108
REMARK   45  A    between atoms: _108  and  _109
REMARK   46  A    between atoms: _113  and  _115
REMARK   47  A    between atoms: _115  and  _116
REMARK   48  A    between atoms: _115  and  _118
REMARK   49  A    between atoms: _118  and  _119
REMARK   50  A    between atoms: _122  and  _124
REMARK   51  A    between atoms: _124  and  _125
REMARK   52  A    between atoms: _124  and  _127
REMARK   53  A    between atoms: _131  and  _132
REMARK   54  A    between atoms: _137  and  _139
REMARK   55  A    between atoms: _139  and  _140
REMARK   56  A    between atoms: _139  and  _142
REMARK   57  A    between atoms: _142  and  _143
REMARK   58  A    between atoms: _148  and  _150
REMARK   59  A    between atoms: _150  and  _151
REMARK   60  A    between atoms: _150  and  _153
REMARK   61  A    between atoms: _153  and  _154
REMARK   62  A    between atoms: _157  and  _159
REMARK   63  A    between atoms: _159  and  _160
REMARK   64  A    between atoms: _159  and  _162
REMARK   65  A    between atoms: _162  and  _163
REMARK   66  A    between atoms: _173  and  _175
REMARK   67  A    between atoms: _175  and  _176
REMARK   68  A    between atoms: _175  and  _178
REMARK   69  A    between atoms: _181  and  _183
REMARK   70  A    between atoms: _183  and  _184
REMARK   71  A    between atoms: _183  and  _186
REMARK   72  A    between atoms: _186  and  _187
REMARK   73  A    between atoms: _187  and  _188
REMARK   74  A    between atoms: _191  and  _193
REMARK   75  A    between atoms: _193  and  _194
REMARK   76  A    between atoms: _193  and  _196
REMARK   77  A    between atoms: _196  and  _197
REMARK   78  A    between atoms: _197  and  _198
REMARK   79  A    between atoms: _201  and  _203
REMARK   80  A    between atoms: _203  and  _204
REMARK   81  A    between atoms: _203  and  _206
REMARK   82  A    between atoms: _206  and  _207
REMARK   83  A    between atoms: _209  and  _211
REMARK   84  A    between atoms: _211  and  _212
REMARK   85  A    between atoms: _211  and  _214
REMARK   86  A    between atoms: _217  and  _219
REMARK   87  A    between atoms: _219  and  _220
REMARK   88  A    between atoms: _219  and  _222
REMARK   89  A    between atoms: _222  and  _223
REMARK   90  A    between atoms: _228  and  _230
REMARK   91  A    between atoms: _230  and  _231
REMARK   92  A    between atoms: _233  and  _235
REMARK   93  A    between atoms: _235  and  _236
REMARK   94  A    between atoms: _235  and  _238
REMARK   95  A    between atoms: _238  and  _239
REMARK   96  A    between atoms: _243  and  _244
REMARK   97  A    between atoms: _249  and  _251
REMARK   98  A    between atoms: _251  and  _252
REMARK   99  A    between atoms: _251  and  _254
REMARK  100  A    between atoms: _254  and  _255
REMARK  101  A    between atoms: _260  and  _261
REMARK  102  A    between atoms: _263  and  _265
REMARK  103  A    between atoms: _265  and  _266
REMARK  104  A    between atoms: _265  and  _268
REMARK  105  A    between atoms: _268  and  _269
REMARK  106  A    between atoms: _275  and  _277
REMARK  107  A    between atoms: _277  and  _278
REMARK  108  A    between atoms: _277  and  _280
REMARK  109  A    between atoms: _280  and  _281
REMARK  110  A    between atoms: _286  and  _288
REMARK  111  A    between atoms: _288  and  _289
REMARK  112  A    between atoms: _288  and  _291
REMARK  113  A    between atoms: _291  and  _292
REMARK  114  A    between atoms: _297  and  _298
REMARK  115  A    between atoms: _300  and  _302
REMARK  116  A    between atoms: _302  and  _303
REMARK  117  A    between atoms: _305  and  _307
REMARK  118  A    between atoms: _307  and  _308
REMARK  119  A    between atoms: _307  and  _310
REMARK  120  A    between atoms: _310  and  _311
REMARK  121  A    between atoms: _314  and  _316
REMARK  122  A    between atoms: _316  and  _317
REMARK  123  A    between atoms: _316  and  _319
REMARK  124  A    between atoms: _319  and  _320
REMARK  125  A    between atoms: _325  and  _327
REMARK  126  A    between atoms: _327  and  _328
REMARK  127  A    between atoms: _331  and  _332
REMARK  128  A    between atoms: _337  and  _339
REMARK  129  A    between atoms: _339  and  _340
REMARK  130  A    between atoms: _339  and  _342
REMARK  131  A    between atoms: _342  and  _343
REMARK  132  A    between atoms: _353  and  _355
REMARK  133  A    between atoms: _355  and  _356
REMARK  134  A    between atoms: _359  and  _361
REMARK  135  A    between atoms: _361  and  _362
REMARK  136  A    between atoms: _361  and  _364
REMARK  137  A    between atoms: _364  and  _365
REMARK  138  A    between atoms: _371  and  _373
REMARK  139  A    between atoms: _373  and  _374
REMARK  140  A    between atoms: _373  and  _376
REMARK  141  A    between atoms: _376  and  _377
REMARK  142  A    between atoms: _380  and  _382
REMARK  143  A    between atoms: _382  and  _383
REMARK  144  A    between atoms: _385  and  _387
REMARK  145  A    between atoms: _387  and  _388
REMARK  146  A    between atoms: _387  and  _390
REMARK  147  A    between atoms: _393  and  _395
REMARK  148  A    between atoms: _395  and  _396
REMARK  149  A    between atoms: _395  and  _398
REMARK  150  A    between atoms: _398  and  _399
REMARK  151  A    between atoms: _399  and  _400
REMARK  152  A    between atoms: _405  and  _407
REMARK  153  A    between atoms: _407  and  _408
REMARK  154  A    between atoms: _407  and  _410
REMARK  155  A    between atoms: _410  and  _411
REMARK  156  A    between atoms: _417  and  _419
REMARK  157  A    between atoms: _419  and  _420
REMARK  158  A    between atoms: _419  and  _422
REMARK  159  A    between atoms: _422  and  _423
REMARK  160  A    between atoms: _423  and  _424
REMARK  161  A    between atoms: _424  and  _425
REMARK  162  A    between atoms: _434  and  _436
REMARK  163  A    between atoms: _436  and  _437
REMARK  164  A    between atoms: _436  and  _439
REMARK  165  A    between atoms: _439  and  _440
REMARK  166  A    between atoms: _440  and  _441
REMARK  167  A    between atoms: _444  and  _445
REMARK  168  A    between atoms: _450  and  _452
REMARK  169  A    between atoms: _452  and  _453
REMARK  170  A    between atoms: _452  and  _455
REMARK  171  A    between atoms: _455  and  _456
REMARK  172  A    between atoms: _456  and  _457
REMARK  173  A    between atoms: _459  and  _461
REMARK  174  A    between atoms: _461  and  _462
REMARK  175  A    between atoms: _464  and  _466
REMARK  176  A    between atoms: _466  and  _467
REMARK  177  A    between atoms: _466  and  _469
REMARK  178  A    between atoms: _472  and  _474
REMARK  179  A    between atoms: _474  and  _475
REMARK  180  A    between atoms: _474  and  _477
REMARK  181  A    between atoms: _477  and  _478
REMARK  182  A    between atoms: _488  and  _490
REMARK  183  A    between atoms: _490  and  _491
REMARK  184  A    between atoms: _493  and  _495
REMARK  185  A    between atoms: _495  and  _496
REMARK  186  A    between atoms: _495  and  _498
REMARK  187  A    between atoms: _498  and  _499
REMARK  188  A    between atoms: _509  and  _511
REMARK  189  A    between atoms: _511  and  _512
REMARK                            x       y       z     vdW  Elec       q    Type
REMARK                         _______ _______ _______ _____ _____    ______ ____
ROOT
ATOM      1  CA  SER A   2      23.714   7.070  18.632  0.00  0.00    +0.178 C 
ENDROOT
BRANCH   1   4
ATOM      2  C   GLU A   1      21.295   7.247  18.451  0.00  0.00    +0.238 C 
ATOM      3  O   GLU A   1      21.113   6.863  19.590  0.00  0.00    -0.274 OA
ATOM      4  N   SER A   2      22.490   7.310  17.883  0.00  0.00    -0.295 N 
ATOM      5  H   SER A   2      22.555   7.538  16.870  0.00  0.00    +0.150 HD
BRANCH   2   6
ATOM      6  CA  GLU A   1      20.150   7.749  17.598  0.00  0.00    +0.145 C 
BRANCH   6   7
ATOM      7  N   GLU A   1      18.897   7.205  18.072  0.00  0.00    -0.238 NA
ATOM      8  H   GLU A   1      18.823   6.884  19.058  0.00  0.00    +0.142 HD
ENDBRANCH   6   7
BRANCH   6   9
ATOM      9  CB  GLU A   1      20.109   9.267  17.697  0.00  0.00    +0.038 C 
BRANCH   9  10
ATOM     10  CG  GLU A   1      19.879   9.776  19.129  0.00  0.00    +0.116 C 
BRANCH  10  11
ATOM     11  CD  GLU A   1      19.556  11.239  19.195  0.00  0.00    +0.365 C 
ATOM     12  OE2 GLU A   1      19.630  11.851  20.300  0.00  0.00    -0.246 OA
ATOM     13  OE1 GLU A   1      19.253  11.791  18.135  0.00  0.00    -0.246 OA
ENDBRANCH  10  11
ENDBRANCH   9  10
ENDBRANCH   6   9
ENDBRANCH   2   6
ENDBRANCH   1   4
BRANCH   1  14
ATOM     14  C   SER A   2      24.835   7.708  17.855  0.00  0.00    +0.243 C 
ATOM     15  N   VAL A   3      25.968   7.938  18.508  0.00  0.00    -0.298 N 
ATOM     16  H   VAL A   3      25.995   7.892  19.547  0.00  0.00    +0.150 HD
ATOM     17  O   SER A   2      24.692   7.980  16.663  0.00  0.00    -0.273 OA
BRANCH  15  18
ATOM     18  CA  VAL A   3      27.170   8.255  17.756  0.00  0.00    +0.137 C 
BRANCH  18  19
ATOM     19  CB  VAL A   3      28.303   8.919  18.636  0.00  0.00    +0.026 C 
ATOM     20  CG2 VAL A   3      28.803   7.965  19.751  0.00  0.00    +0.002 C 
ATOM     21  CG1 VAL A   3      27.809  10.257  19.182  0.00  0.00    +0.002 C 
ENDBRANCH  18  19
BRANCH  18  22
ATOM     22  C   VAL A   3      27.702   7.018  17.044  0.00  0.00    +0.227 C 
ATOM     23  O   VAL A   3      27.385   5.865  17.377  0.00  0.00    -0.286 OA
ENDBRANCH  18  22
ENDBRANCH  15  18
ENDBRANCH   1  14
BRANCH   1  24
ATOM     24  CB  SER A   2      23.974   5.557  18.793  0.00  0.00    +0.166 C 
BRANCH  24  25
ATOM     25  OG  SER A   2      24.591   5.011  17.639  0.00  0.00    -0.380 OA
ATOM     26  H   SER A   2      25.458   5.464  17.484  0.00  0.00    +0.211 HD
ENDBRANCH  24  25
ENDBRANCH   1  24
TORSDOF 12
REMARK  Name = ../refined-set-2016/2gh9/2gh9_pocket.pdb
REMARK  189 active torsions:
REMARK  status: ('A' for Active; 'I' for Inactive)
REMARK    1  A    between atoms: _1  and  _3
REMARK    2  A    between atoms: _3  and  _4
REMARK    3  A    between atoms: _3  and  _6
REMARK    4  A    between atoms: _6  and  _7
REMARK    5  A    between atoms: _10  and  _12
REMARK    6  A    between atoms: _12  and  _13
REMARK    7  A    between atoms: _12  and  _15
REMARK    8  A    between atoms: _15  and  _16
REMARK    9  A    between atoms: _21  and  _23
REMARK   10  A    between atoms: _23  and  _24
REMARK   11  A    between atoms: _23  and  _26
REMARK   12  A    between atoms: _26  and  _27
REMARK   13  A    between atoms: _33  and  _35
REMARK   14  A    between atoms: _35  and  _36
REMARK   15  A    between atoms: _38  and  _40
REMARK   16  A    between atoms: _40  and  _41
REMARK   17  A    between atoms: _40  and  _43
REMARK   18  A    between atoms: _43  and  _44
REMARK   19  A    between atoms: _44  and  _45
REMARK   20  A    between atoms: _48  and  _50
REMARK   21  A    between atoms: _50  and  _51
REMARK   22  A    between atoms: _50  and  _53
REMARK   23  A    between atoms: _57  and  _58
REMARK   24  A    between atoms: _63  and  _65
REMARK   25  A    between atoms: _65  and  _66
REMARK   26  A    between atoms: _65  and  _68
REMARK   27  A    between atoms: _68  and  _69
REMARK   28  A    between atoms: _75  and  _77
REMARK   29  A    between atoms: _77  and  _78
REMARK   30  A    between atoms: _81  and  _83
REMARK   31  A    between atoms: _83  and  _84
REMARK   32  A    between atoms: _83  and  _86
REMARK   33  A    between atoms: _86  and  _87
REMARK   34  A    between atoms: _87  and  _88
REMARK   35  A    between atoms: _91  and  _93
REMARK   36  A    between atoms: _93  and  _94
REMARK   37  A    between atoms: _93  and  _96
REMARK   38  A    between atoms: _96  and  _97
REMARK   39  A    between atoms: _100  and  _102
REMARK   40  A    between atoms: _102  and  _103
REMARK   41  A    between atoms: _102  and  _105
REMARK   42  A    between atoms: _105  and  _106
REMARK   43  A    between atoms: _106  and  _107
REMARK   44  A    between atoms: _107  and  _108
REMARK   45  A    between atoms: _108  and  _109
REMARK   46  A    between atoms: _113  and  _115
REMARK   47  A    between atoms: _115  and  _116
REMARK   48  A    between atoms: _115  and  _118
REMARK   49  A    between atoms: _118  and  _119
REMARK   50  A    between atoms: _122  and  _124
REMARK   51  A    between atoms: _124  and  _125
REMARK   52  A    between atoms: _124  and  _127
REMARK   53  A    between atoms: _131  and  _132
REMARK   54  A    between atoms: _137  and  _139
REMARK   55  A    between atoms: _139  and  _140
REMARK   56  A    between atoms: _139  and  _142
REMARK   57  A    between atoms: _142  and  _143
REMARK   58  A    between atoms: _148  and  _150
REMARK   59  A    between atoms: _150  and  _151
REMARK   60  A    between atoms: _150  and  _153
REMARK   61  A    between atoms: _153  and  _154
REMARK   62  A    between atoms: _157  and  _159
REMARK   63  A    between atoms: _159  and  _160
REMARK   64  A    between atoms: _159  and  _162
REMARK   65  A    between atoms: _162  and  _163
REMARK   66  A    between atoms: _173  and  _175
REMARK   67  A    between atoms: _175  and  _176
REMARK   68  A    between atoms: _175  and  _178
REMARK   69  A    between atoms: _181  and  _183
REMARK   70  A    between atoms: _183  and  _184
REMARK   71  A    between atoms: _183  and  _186
REMARK   72  A    between atoms: _186  and  _187
REMARK   73  A    between atoms: _187  and  _188
REMARK   74  A    between atoms: _191  and  _193
REMARK   75  A    between atoms: _193  and  _194
REMARK   76  A    between atoms: _193  and  _196
REMARK   77  A    between atoms: _196  and  _197
REMARK   78  A    between atoms: _197  and  _198
REMARK   79  A    between atoms: _201  and  _203
REMARK   80  A    between atoms: _203  and  _204
REMARK   81  A    between atoms: _203  and  _206
REMARK   82  A    between atoms: _206  and  _207
REMARK   83  A    between atoms: _209  and  _211
REMARK   84  A    between atoms: _211  and  _212
REMARK   85  A    between atoms: _211  and  _214
REMARK   86  A    between atoms: _217  and  _219
REMARK   87  A    between atoms: _219  and  _220
REMARK   88  A    between atoms: _219  and  _222
REMARK   89  A    between atoms: _222  and  _223
REMARK   90  A    between atoms: _228  and  _230
REMARK   91  A    between atoms: _230  and  _231
REMARK   92  A    between atoms: _233  and  _235
REMARK   93  A    between atoms: _235  and  _236
REMARK   94  A    between atoms: _235  and  _238
REMARK   95  A    between atoms: _238  and  _239
REMARK   96  A    between atoms: _243  and  _244
REMARK   97  A    between atoms: _249  and  _251
REMARK   98  A    between atoms: _251  and  _252
REMARK   99  A    between atoms: _251  and  _254
REMARK  100  A    between atoms: _254  and  _255
REMARK  101  A    between atoms: _260  and  _261
REMARK  102  A    between atoms: _263  and  _265
REMARK  103  A    between atoms: _265  and  _266
REMARK  104  A    between atoms: _265  and  _268
REMARK  105  A    between atoms: _268  and  _269
REMARK  106  A    between atoms: _275  and  _277
REMARK  107  A    between atoms: _277  and  _278
REMARK  108  A    between atoms: _277  and  _280
REMARK  109  A    between atoms: _280  and  _281
REMARK  110  A    between atoms: _286  and  _288
REMARK  111  A    between atoms: _288  and  _289
REMARK  112  A    between atoms: _288  and  _291
REMARK  113  A    between atoms: _291  and  _292
REMARK  114  A    between atoms: _297  and  _298
REMARK  115  A    between atoms: _300  and  _302
REMARK  116  A    between atoms: _302  and  _303
REMARK  117  A    between atoms: _305  and  _307
REMARK  118  A    between atoms: _307  and  _308
REMARK  119  A    between atoms: _307  and  _310
REMARK  120  A    between atoms: _310  and  _311
REMARK  121  A    between atoms: _314  and  _316
REMARK  122  A    between atoms: _316  and  _317
REMARK  123  A    between atoms: _316  and  _319
REMARK  124  A    between atoms: _319  and  _320
REMARK  125  A    between atoms: _325  and  _327
REMARK  126  A    between atoms: _327  and  _328
REMARK  127  A    between atoms: _331  and  _332
REMARK  128  A    between atoms: _337  and  _339
REMARK  129  A    between atoms: _339  and  _340
REMARK  130  A    between atoms: _339  and  _342
REMARK  131  A    between atoms: _342  and  _343
REMARK  132  A    between atoms: _353  and  _355
REMARK  133  A    between atoms: _355  and  _356
REMARK  134  A    between atoms: _359  and  _361
REMARK  135  A    between atoms: _361  and  _362
REMARK  136  A    between atoms: _361  and  _364
REMARK  137  A    between atoms: _364  and  _365
REMARK  138  A    between atoms: _371  and  _373
REMARK  139  A    between atoms: _373  and  _374
REMARK  140  A    between atoms: _373  and  _376
REMARK  141  A    between atoms: _376  and  _377
REMARK  142  A    between atoms: _380  and  _382
REMARK  143  A    between atoms: _382  and  _383
REMARK  144  A    between atoms: _385  and  _387
REMARK  145  A    between atoms: _387  and  _388
REMARK  146  A    between atoms: _387  and  _390
REMARK  147  A    between atoms: _393  and  _395
REMARK  148  A    between atoms: _395  and  _396
REMARK  149  A    between atoms: _395  and  _398
REMARK  150  A    between atoms: _398  and  _399
REMARK  151  A    between atoms: _399  and  _400
REMARK  152  A    between atoms: _405  and  _407
REMARK  153  A    between atoms: _407  and  _408
REMARK  154  A    between atoms: _407  and  _410
REMARK  155  A    between atoms: _410  and  _411
REMARK  156  A    between atoms: _417  and  _419
REMARK  157  A    between atoms: _419  and  _420
REMARK  158  A    between atoms: _419  and  _422
REMARK  159  A    between atoms: _422  and  _423
REMARK  160  A    between atoms: _423  and  _424
REMARK  161  A    between atoms: _424  and  _425
REMARK  162  A    between atoms: _434  and  _436
REMARK  163  A    between atoms: _436  and  _437
REMARK  164  A    between atoms: _436  and  _439
REMARK  165  A    between atoms: _439  and  _440
REMARK  166  A    between atoms: _440  and  _441
REMARK  167  A    between atoms: _444  and  _445
REMARK  168  A    between atoms: _450  and  _452
REMARK  169  A    between atoms: _452  and  _453
REMARK  170  A    between atoms: _452  and  _455
REMARK  171  A    between atoms: _455  and  _456
REMARK  172  A    between atoms: _456  and  _457
REMARK  173  A    between atoms: _459  and  _461
REMARK  174  A    between atoms: _461  and  _462
REMARK  175  A    between atoms: _464  and  _466
REMARK  176  A    between atoms: _466  and  _467
REMARK  177  A    between atoms: _466  and  _469
REMARK  178  A    between atoms: _472  and  _474
REMARK  179  A    between atoms: _474  and  _475
REMARK  180  A    between atoms: _474  and  _477
REMARK  181  A    between atoms: _477  and  _478
REMARK  182  A    between atoms: _488  and  _490
REMARK  183  A    between atoms: _490  and  _491
REMARK  184  A    between atoms: _493  and  _495
REMARK  185  A    between atoms: _495  and  _496
REMARK  186  A    between atoms: _495  and  _498
REMARK  187  A    between atoms: _498  and  _499
REMARK  188  A    between atoms: _509  and  _511
REMARK  189  A    between atoms: _511  and  _512
REMARK                            x       y       z     vdW  Elec       q    Type
REMARK                         _______ _______ _______ _____ _____    ______ ____
ROOT
ATOM      1  CB  ASN A   1      32.284  16.842  20.674  0.00  0.00    +0.110 C 
ENDROOT
BRANCH   1   2
ATOM      2  CG  ASN A   1      31.997  17.905  21.694  0.00  0.00    +0.221 C 
ATOM      3  OD1 ASN A   1      32.908  18.529  22.262  0.00  0.00    -0.275 OA
ATOM      4  ND2 ASN A   1      30.698  18.137  21.938  0.00  0.00    -0.329 N 
ATOM      5 HD21 ASN A   1      30.420  18.865  22.627  0.00  0.00    +0.145 HD
ATOM      6 HD22 ASN A   1      29.969  17.589  21.438  0.00  0.00    +0.145 HD
ENDBRANCH   1   2
BRANCH   1   7
ATOM      7  CA  ASN A   1      33.789  16.581  20.478  0.00  0.00    +0.142 C 
BRANCH   7   8
ATOM      8  N   ASN A   1      34.000  15.798  19.263  0.00  0.00    -0.239 NA
ATOM      9  H   ASN A   1      33.185  15.319  18.829  0.00  0.00    +0.142 HD
ENDBRANCH   7   8
BRANCH   7  10
ATOM     10  C   ASN A   1      34.420  15.905  21.698  0.00  0.00    +0.225 C 
ATOM     11  O   ASN A   1      33.743  15.335  22.536  0.00  0.00    -0.287 OA
ENDBRANCH   7  10
ENDBRANCH   1   7
TORSDOF 4
REMARK  Name = ../refined-set-2016/2gh9/2gh9_pocket.pdb
REMARK  189 active torsions:
REMARK  status: ('A' for Active; 'I' for Inactive)
REMARK    1  A    between atoms: _1  and  _3
REMARK    2  A    between atoms: _3  and  _4
REMARK    3  A    between atoms: _3  and  _6
REMARK    4  A    between atoms: _6  and  _7
REMARK    5  A    between atoms: _10  and  _12
REMARK    6  A    between atoms: _12  and  _13
REMARK    7  A    between atoms: _12  and  _15
REMARK    8  A    between atoms: _15  and  _16
REMARK    9  A    between atoms: _21  and  _23
REMARK   10  A    between atoms: _23  and  _24
REMARK   11  A    between atoms: _23  and  _26
REMARK   12  A    between atoms: _26  and  _27
REMARK   13  A    between atoms: _33  and  _35
REMARK   14  A    between atoms: _35  and  _36
REMARK   15  A    between atoms: _38  and  _40
REMARK   16  A    between atoms: _40  and  _41
REMARK   17  A    between atoms: _40  and  _43
REMARK   18  A    between atoms: _43  and  _44
REMARK   19  A    between atoms: _44  and  _45
REMARK   20  A    between atoms: _48  and  _50
REMARK   21  A    between atoms: _50  and  _51
REMARK   22  A    between atoms: _50  and  _53
REMARK   23  A    between atoms: _57  and  _58
REMARK   24  A    between atoms: _63  and  _65
REMARK   25  A    between atoms: _65  and  _66
REMARK   26  A    between atoms: _65  and  _68
REMARK   27  A    between atoms: _68  and  _69
REMARK   28  A    between atoms: _75  and  _77
REMARK   29  A    between atoms: _77  and  _78
REMARK   30  A    between atoms: _81  and  _83
REMARK   31  A    between atoms: _83  and  _84
REMARK   32  A    between atoms: _83  and  _86
REMARK   33  A    between atoms: _86  and  _87
REMARK   34  A    between atoms: _87  and  _88
REMARK   35  A    between atoms: _91  and  _93
REMARK   36  A    between atoms: _93  and  _94
REMARK   37  A    between atoms: _93  and  _96
REMARK   38  A    between atoms: _96  and  _97
REMARK   39  A    between atoms: _100  and  _102
REMARK   40  A    between atoms: _102  and  _103
REMARK   41  A    between atoms: _102  and  _105
REMARK   42  A    between atoms: _105  and  _106
REMARK   43  A    between atoms: _106  and  _107
REMARK   44  A    between atoms: _107  and  _108
REMARK   45  A    between atoms: _108  and  _109
REMARK   46  A    between atoms: _113  and  _115
REMARK   47  A    between atoms: _115  and  _116
REMARK   48  A    between atoms: _115  and  _118
REMARK   49  A    between atoms: _118  and  _119
REMARK   50  A    between atoms: _122  and  _124
REMARK   51  A    between atoms: _124  and  _125
REMARK   52  A    between atoms: _124  and  _127
REMARK   53  A    between atoms: _131  and  _132
REMARK   54  A    between atoms: _137  and  _139
REMARK   55  A    between atoms: _139  and  _140
REMARK   56  A    between atoms: _139  and  _142
REMARK   57  A    between atoms: _142  and  _143
REMARK   58  A    between atoms: _148  and  _150
REMARK   59  A    between atoms: _150  and  _151
REMARK   60  A    between atoms: _150  and  _153
REMARK   61  A    between atoms: _153  and  _154
REMARK   62  A    between atoms: _157  and  _159
REMARK   63  A    between atoms: _159  and  _160
REMARK   64  A    between atoms: _159  and  _162
REMARK   65  A    between atoms: _162  and  _163
REMARK   66  A    between atoms: _173  and  _175
REMARK   67  A    between atoms: _175  and  _176
REMARK   68  A    between atoms: _175  and  _178
REMARK   69  A    between atoms: _181  and  _183
REMARK   70  A    between atoms: _183  and  _184
REMARK   71  A    between atoms: _183  and  _186
REMARK   72  A    between atoms: _186  and  _187
REMARK   73  A    between atoms: _187  and  _188
REMARK   74  A    between atoms: _191  and  _193
REMARK   75  A    between atoms: _193  and  _194
REMARK   76  A    between atoms: _193  and  _196
REMARK   77  A    between atoms: _196  and  _197
REMARK   78  A    between atoms: _197  and  _198
REMARK   79  A    between atoms: _201  and  _203
REMARK   80  A    between atoms: _203  and  _204
REMARK   81  A    between atoms: _203  and  _206
REMARK   82  A    between atoms: _206  and  _207
REMARK   83  A    between atoms: _209  and  _211
REMARK   84  A    between atoms: _211  and  _212
REMARK   85  A    between atoms: _211  and  _214
REMARK   86  A    between atoms: _217  and  _219
REMARK   87  A    between atoms: _219  and  _220
REMARK   88  A    between atoms: _219  and  _222
REMARK   89  A    between atoms: _222  and  _223
REMARK   90  A    between atoms: _228  and  _230
REMARK   91  A    between atoms: _230  and  _231
REMARK   92  A    between atoms: _233  and  _235
REMARK   93  A    between atoms: _235  and  _236
REMARK   94  A    between atoms: _235  and  _238
REMARK   95  A    between atoms: _238  and  _239
REMARK   96  A    between atoms: _243  and  _244
REMARK   97  A    between atoms: _249  and  _251
REMARK   98  A    between atoms: _251  and  _252
REMARK   99  A    between atoms: _251  and  _254
REMARK  100  A    between atoms: _254  and  _255
REMARK  101  A    between atoms: _260  and  _261
REMARK  102  A    between atoms: _263  and  _265
REMARK  103  A    between atoms: _265  and  _266
REMARK  104  A    between atoms: _265  and  _268
REMARK  105  A    between atoms: _268  and  _269
REMARK  106  A    between atoms: _275  and  _277
REMARK  107  A    between atoms: _277  and  _278
REMARK  108  A    between atoms: _277  and  _280
REMARK  109  A    between atoms: _280  and  _281
REMARK  110  A    between atoms: _286  and  _288
REMARK  111  A    between atoms: _288  and  _289
REMARK  112  A    between atoms: _288  and  _291
REMARK  113  A    between atoms: _291  and  _292
REMARK  114  A    between atoms: _297  and  _298
REMARK  115  A    between atoms: _300  and  _302
REMARK  116  A    between atoms: _302  and  _303
REMARK  117  A    between atoms: _305  and  _307
REMARK  118  A    between atoms: _307  and  _308
REMARK  119  A    between atoms: _307  and  _310
REMARK  120  A    between atoms: _310  and  _311
REMARK  121  A    between atoms: _314  and  _316
REMARK  122  A    between atoms: _316  and  _317
REMARK  123  A    between atoms: _316  and  _319
REMARK  124  A    between atoms: _319  and  _320
REMARK  125  A    between atoms: _325  and  _327
REMARK  126  A    between atoms: _327  and  _328
REMARK  127  A    between atoms: _331  and  _332
REMARK  128  A    between atoms: _337  and  _339
REMARK  129  A    between atoms: _339  and  _340
REMARK  130  A    between atoms: _339  and  _342
REMARK  131  A    between atoms: _342  and  _343
REMARK  132  A    between atoms: _353  and  _355
REMARK  133  A    between atoms: _355  and  _356
REMARK  134  A    between atoms: _359  and  _361
REMARK  135  A    between atoms: _361  and  _362
REMARK  136  A    between atoms: _361  and  _364
REMARK  137  A    between atoms: _364  and  _365
REMARK  138  A    between atoms: _371  and  _373
REMARK  139  A    between atoms: _373  and  _374
REMARK  140  A    between atoms: _373  and  _376
REMARK  141  A    between atoms: _376  and  _377
REMARK  142  A    between atoms: _380  and  _382
REMARK  143  A    between atoms: _382  and  _383
REMARK  144  A    between atoms: _385  and  _387
REMARK  145  A    between atoms: _387  and  _388
REMARK  146  A    between atoms: _387  and  _390
REMARK  147  A    between atoms: _393  and  _395
REMARK  148  A    between atoms: _395  and  _396
REMARK  149  A    between atoms: _395  and  _398
REMARK  150  A    between atoms: _398  and  _399
REMARK  151  A    between atoms: _399  and  _400
REMARK  152  A    between atoms: _405  and  _407
REMARK  153  A    between atoms: _407  and  _408
REMARK  154  A    between atoms: _407  and  _410
REMARK  155  A    between atoms: _410  and  _411
REMARK  156  A    between atoms: _417  and  _419
REMARK  157  A    between atoms: _419  and  _420
REMARK  158  A    between atoms: _419  and  _422
REMARK  159  A    between atoms: _422  and  _423
REMARK  160  A    between atoms: _423  and  _424
REMARK  161  A    between atoms: _424  and  _425
REMARK  162  A    between atoms: _434  and  _436
REMARK  163  A    between atoms: _436  and  _437
REMARK  164  A    between atoms: _436  and  _439
REMARK  165  A    between atoms: _439  and  _440
REMARK  166  A    between atoms: _440  and  _441
REMARK  167  A    between atoms: _444  and  _445
REMARK  168  A    between atoms: _450  and  _452
REMARK  169  A    between atoms: _452  and  _453
REMARK  170  A    between atoms: _452  and  _455
REMARK  171  A    between atoms: _455  and  _456
REMARK  172  A    between atoms: _456  and  _457
REMARK  173  A    between atoms: _459  and  _461
REMARK  174  A    between atoms: _461  and  _462
REMARK  175  A    between atoms: _464  and  _466
REMARK  176  A    between atoms: _466  and  _467
REMARK  177  A    between atoms: _466  and  _469
REMARK  178  A    between atoms: _472  and  _474
REMARK  179  A    between atoms: _474  and  _475
REMARK  180  A    between atoms: _474  and  _477
REMARK  181  A    between atoms: _477  and  _478
REMARK  182  A    between atoms: _488  and  _490
REMARK  183  A    between atoms: _490  and  _491
REMARK  184  A    between atoms: _493  and  _495
REMARK  185  A    between atoms: _495  and  _496
REMARK  186  A    between atoms: _495  and  _498
REMARK  187  A    between atoms: _498  and  _499
REMARK  188  A    between atoms: _509  and  _511
REMARK  189  A    between atoms: _511  and  _512
REMARK                            x       y       z     vdW  Elec       q    Type
REMARK                         _______ _______ _______ _____ _____    ______ ____
ROOT
ATOM      1  CA  TYR A   4      28.134  11.428  26.018  0.00  0.00    +0.153 C 
ENDROOT
BRANCH   1   4
ATOM      2  C   PRO A   3      30.092  11.785  27.476  0.00  0.00    +0.241 C 
ATOM      3  O   PRO A   3      30.466  10.597  27.359  0.00  0.00    -0.273 OA
ATOM      4  N   TYR A   4      28.950  12.233  26.966  0.00  0.00    -0.297 N 
ATOM      5  H   TYR A   4      28.615  13.179  27.239  0.00  0.00    +0.150 HD
BRANCH   2  11
ATOM      6  C   ASP A   2      31.718  14.286  26.392  0.00  0.00    +0.244 C 
ATOM      7  N   PRO A   3      31.097  14.159  27.570  0.00  0.00    -0.272 N 
ATOM      8  CD  PRO A   3      30.475  15.239  28.362  0.00  0.00    +0.094 C 
ATOM      9  CG  PRO A   3      29.777  14.511  29.468  0.00  0.00    +0.024 C 
ATOM     10  CB  PRO A   3      30.361  13.173  29.602  0.00  0.00    +0.031 C 
ATOM     11  CA  PRO A   3      30.965  12.831  28.227  0.00  0.00    +0.152 C 
ATOM     12  O   ASP A   2      32.130  13.308  25.787  0.00  0.00    -0.273 OA
BRANCH   6  13
ATOM     13  CA  ASP A   2      31.881  15.717  25.799  0.00  0.00    +0.160 C 
BRANCH  13  16
ATOM     14  C   GLY A   1      34.119  16.538  26.400  0.00  0.00    +0.240 C 
ATOM     15  O   GLY A   1      33.859  16.546  27.578  0.00  0.00    -0.274 OA
ATOM     16  N   ASP A   2      33.266  16.090  25.476  0.00  0.00    -0.297 N 
ATOM     17  H   ASP A   2      33.593  16.002  24.493  0.00  0.00    +0.150 HD
BRANCH  14  18
ATOM     18  CA  GLY A   1      35.468  17.032  25.933  0.00  0.00    +0.169 C 
BRANCH  18  19
ATOM     19  N   GLY A   1      35.792  16.724  24.565  0.00  0.00    -0.236 NA
ATOM     20  H   GLY A   1      35.670  17.452  23.832  0.00  0.00    +0.142 HD
ENDBRANCH  18  19
ENDBRANCH  14  18
ENDBRANCH  13  16
BRANCH  13  21
ATOM     21  CB  ASP A   2      31.044  15.905  24.531  0.00  0.00    +0.143 C 
BRANCH  21  22
ATOM     22  CG  ASP A   2      29.541  15.895  24.788  0.00  0.00    +0.367 C 
ATOM     23  OD2 ASP A   2      29.055  14.884  25.302  0.00  0.00    -0.246 OA
ATOM     24  OD1 ASP A   2      28.844  16.878  24.428  0.00  0.00    -0.246 OA
ENDBRANCH  21  22
ENDBRANCH  13  21
ENDBRANCH   6  13
ENDBRANCH   2  11
ENDBRANCH   1   4
BRANCH   1  25
ATOM     25  C   TYR A   4      28.931  10.870  24.817  0.00  0.00    +0.241 C 
ATOM     26  O   TYR A   4      28.862   9.685  24.515  0.00  0.00    -0.273 OA
ATOM     27  N   PHE A   5      29.693  11.713  24.130  0.00  0.00    -0.297 N 
ATOM     28  H   PHE A   5      29.750  12.709  24.424  0.00  0.00    +0.150 HD
BRANCH  27  29
ATOM     29  CA  PHE A   5      30.463  11.255  22.951  0.00  0.00    +0.153 C 
BRANCH  29  30
ATOM     30  C   PHE A   5      31.514  10.198  23.310  0.00  0.00    +0.241 C 
ATOM     31  N   ASN A   6      32.077  10.339  24.508  0.00  0.00    -0.298 N 
ATOM     32  H   ASN A   6      31.764  11.128  25.110  0.00  0.00    +0.150 HD
ATOM     33  O   PHE A   5      31.787   9.268  22.537  0.00  0.00    -0.273 OA
BRANCH  31  34
ATOM     34  CA  ASN A   6      33.112   9.443  25.022  0.00  0.00    +0.146 C 
BRANCH  34  35
ATOM     35  C   ASN A   6      32.626   8.184  25.733  0.00  0.00    +0.227 C 
ATOM     36  O   ASN A   6      33.440   7.308  26.014  0.00  0.00    -0.286 OA
ENDBRANCH  34  35
BRANCH  34  37
ATOM     37  CB  ASN A   6      34.033  10.214  25.975  0.00  0.00    +0.112 C 
BRANCH  37  38
ATOM     38  CG  ASN A   6      34.993  11.090  25.242  0.00  0.00    +0.222 C 
ATOM     39  ND2 ASN A   6      34.847  12.393  25.390  0.00  0.00    -0.329 N 
ATOM     40 HD21 ASN A   6      34.113  12.765  26.026  0.00  0.00    +0.145 HD
ATOM     41 HD22 ASN A   6      35.466  13.048  24.870  0.00  0.00    +0.145 HD
ATOM     42  OD1 ASN A   6      35.838  10.593  24.508  0.00  0.00    -0.275 OA
ENDBRANCH  37  38
ENDBRANCH  34  37
ENDBRANCH  31  34
ENDBRANCH  29  30
BRANCH  29  43
ATOM     43  CB  PHE A   5      31.132  12.455  22.272  0.00  0.00    +0.055 C 
BRANCH  43  44
ATOM     44  CG  PHE A   5      30.231  13.206  21.350  0.00  0.00    -0.020 A 
ATOM     45  CD2 PHE A   5      29.264  14.052  21.841  0.00  0.00    -0.004 A 
ATOM     46  CE2 PHE A   5      28.428  14.732  20.987  0.00  0.00    -0.000 A 
ATOM     47  CZ  PHE A   5      28.583  14.600  19.629  0.00  0.00    -0.000 A 
ATOM     48  CE1 PHE A   5      29.539  13.753  19.127  0.00  0.00    -0.000 A 
ATOM     49  CD1 PHE A   5      30.361  13.062  19.977  0.00  0.00    -0.004 A 
ENDBRANCH  43  44
ENDBRANCH  29  43
ENDBRANCH  27  29
ENDBRANCH   1  25
BRANCH   1  50
ATOM     50  CB  TYR A   4      26.971  12.287  25.517  0.00  0.00    +0.055 C 
BRANCH  50  51
ATOM     51  CG  TYR A   4      26.093  11.672  24.448  0.00  0.00    -0.020 A 
ATOM     52  CD2 TYR A   4      24.986  10.942  24.794  0.00  0.00    -0.001 A 
ATOM     53  CE2 TYR A   4      24.154  10.406  23.842  0.00  0.00    +0.036 A 
ATOM     54  CZ  TYR A   4      24.431  10.599  22.504  0.00  0.00    +0.134 A 
ATOM     55  CE1 TYR A   4      25.561  11.338  22.122  0.00  0.00    +0.036 A 
ATOM     56  CD1 TYR A   4      26.361  11.880  23.088  0.00  0.00    -0.001 A 
BRANCH  54  57
ATOM     57  OH  TYR A   4      23.583  10.035  21.576  0.00  0.00    -0.506 OA
ATOM     58  HH  TYR A   4      22.852   9.559  22.045  0.00  0.00    +0.292 HD
ENDBRANCH  54  57
ENDBRANCH  50  51
ENDBRANCH   1  50
TORSDOF 20
REMARK  Name = ../refined-set-2016/2gh9/2gh9_pocket.pdb
REMARK  189 active torsions:
REMARK  status: ('A' for Active; 'I' for Inactive)
REMARK    1  A    between atoms: _1  and  _3
REMARK    2  A    between atoms: _3  and  _4
REMARK    3  A    between atoms: _3  and  _6
REMARK    4  A    between atoms: _6  and  _7
REMARK    5  A    between atoms: _10  and  _12
REMARK    6  A    between atoms: _12  and  _13
REMARK    7  A    between atoms: _12  and  _15
REMARK    8  A    between atoms: _15  and  _16
REMARK    9  A    between atoms: _21  and  _23
REMARK   10  A    between atoms: _23  and  _24
REMARK   11  A    between atoms: _23  and  _26
REMARK   12  A    between atoms: _26  and  _27
REMARK   13  A    between atoms: _33  and  _35
REMARK   14  A    between atoms: _35  and  _36
REMARK   15  A    between atoms: _38  and  _40
REMARK   16  A    between atoms: _40  and  _41
REMARK   17  A    between atoms: _40  and  _43
REMARK   18  A    between atoms: _43  and  _44
REMARK   19  A    between atoms: _44  and  _45
REMARK   20  A    between atoms: _48  and  _50
REMARK   21  A    between atoms: _50  and  _51
REMARK   22  A    between atoms: _50  and  _53
REMARK   23  A    between atoms: _57  and  _58
REMARK   24  A    between atoms: _63  and  _65
REMARK   25  A    between atoms: _65  and  _66
REMARK   26  A    between atoms: _65  and  _68
REMARK   27  A    between atoms: _68  and  _69
REMARK   28  A    between atoms: _75  and  _77
REMARK   29  A    between atoms: _77  and  _78
REMARK   30  A    between atoms: _81  and  _83
REMARK   31  A    between atoms: _83  and  _84
REMARK   32  A    between atoms: _83  and  _86
REMARK   33  A    between atoms: _86  and  _87
REMARK   34  A    between atoms: _87  and  _88
REMARK   35  A    between atoms: _91  and  _93
REMARK   36  A    between atoms: _93  and  _94
REMARK   37  A    between atoms: _93  and  _96
REMARK   38  A    between atoms: _96  and  _97
REMARK   39  A    between atoms: _100  and  _102
REMARK   40  A    between atoms: _102  and  _103
REMARK   41  A    between atoms: _102  and  _105
REMARK   42  A    between atoms: _105  and  _106
REMARK   43  A    between atoms: _106  and  _107
REMARK   44  A    between atoms: _107  and  _108
REMARK   45  A    between atoms: _108  and  _109
REMARK   46  A    between atoms: _113  and  _115
REMARK   47  A    between atoms: _115  and  _116
REMARK   48  A    between atoms: _115  and  _118
REMARK   49  A    between atoms: _118  and  _119
REMARK   50  A    between atoms: _122  and  _124
REMARK   51  A    between atoms: _124  and  _125
REMARK   52  A    between atoms: _124  and  _127
REMARK   53  A    between atoms: _131  and  _132
REMARK   54  A    between atoms: _137  and  _139
REMARK   55  A    between atoms: _139  and  _140
REMARK   56  A    between atoms: _139  and  _142
REMARK   57  A    between atoms: _142  and  _143
REMARK   58  A    between atoms: _148  and  _150
REMARK   59  A    between atoms: _150  and  _151
REMARK   60  A    between atoms: _150  and  _153
REMARK   61  A    between atoms: _153  and  _154
REMARK   62  A    between atoms: _157  and  _159
REMARK   63  A    between atoms: _159  and  _160
REMARK   64  A    between atoms: _159  and  _162
REMARK   65  A    between atoms: _162  and  _163
REMARK   66  A    between atoms: _173  and  _175
REMARK   67  A    between atoms: _175  and  _176
REMARK   68  A    between atoms: _175  and  _178
REMARK   69  A    between atoms: _181  and  _183
REMARK   70  A    between atoms: _183  and  _184
REMARK   71  A    between atoms: _183  and  _186
REMARK   72  A    between atoms: _186  and  _187
REMARK   73  A    between atoms: _187  and  _188
REMARK   74  A    between atoms: _191  and  _193
REMARK   75  A    between atoms: _193  and  _194
REMARK   76  A    between atoms: _193  and  _196
REMARK   77  A    between atoms: _196  and  _197
REMARK   78  A    between atoms: _197  and  _198
REMARK   79  A    between atoms: _201  and  _203
REMARK   80  A    between atoms: _203  and  _204
REMARK   81  A    between atoms: _203  and  _206
REMARK   82  A    between atoms: _206  and  _207
REMARK   83  A    between atoms: _209  and  _211
REMARK   84  A    between atoms: _211  and  _212
REMARK   85  A    between atoms: _211  and  _214
REMARK   86  A    between atoms: _217  and  _219
REMARK   87  A    between atoms: _219  and  _220
REMARK   88  A    between atoms: _219  and  _222
REMARK   89  A    between atoms: _222  and  _223
REMARK   90  A    between atoms: _228  and  _230
REMARK   91  A    between atoms: _230  and  _231
REMARK   92  A    between atoms: _233  and  _235
REMARK   93  A    between atoms: _235  and  _236
REMARK   94  A    between atoms: _235  and  _238
REMARK   95  A    between atoms: _238  and  _239
REMARK   96  A    between atoms: _243  and  _244
REMARK   97  A    between atoms: _249  and  _251
REMARK   98  A    between atoms: _251  and  _252
REMARK   99  A    between atoms: _251  and  _254
REMARK  100  A    between atoms: _254  and  _255
REMARK  101  A    between atoms: _260  and  _261
REMARK  102  A    between atoms: _263  and  _265
REMARK  103  A    between atoms: _265  and  _266
REMARK  104  A    between atoms: _265  and  _268
REMARK  105  A    between atoms: _268  and  _269
REMARK  106  A    between atoms: _275  and  _277
REMARK  107  A    between atoms: _277  and  _278
REMARK  108  A    between atoms: _277  and  _280
REMARK  109  A    between atoms: _280  and  _281
REMARK  110  A    between atoms: _286  and  _288
REMARK  111  A    between atoms: _288  and  _289
REMARK  112  A    between atoms: _288  and  _291
REMARK  113  A    between atoms: _291  and  _292
REMARK  114  A    between atoms: _297  and  _298
REMARK  115  A    between atoms: _300  and  _302
REMARK  116  A    between atoms: _302  and  _303
REMARK  117  A    between atoms: _305  and  _307
REMARK  118  A    between atoms: _307  and  _308
REMARK  119  A    between atoms: _307  and  _310
REMARK  120  A    between atoms: _310  and  _311
REMARK  121  A    between atoms: _314  and  _316
REMARK  122  A    between atoms: _316  and  _317
REMARK  123  A    between atoms: _316  and  _319
REMARK  124  A    between atoms: _319  and  _320
REMARK  125  A    between atoms: _325  and  _327
REMARK  126  A    between atoms: _327  and  _328
REMARK  127  A    between atoms: _331  and  _332
REMARK  128  A    between atoms: _337  and  _339
REMARK  129  A    between atoms: _339  and  _340
REMARK  130  A    between atoms: _339  and  _342
REMARK  131  A    between atoms: _342  and  _343
REMARK  132  A    between atoms: _353  and  _355
REMARK  133  A    between atoms: _355  and  _356
REMARK  134  A    between atoms: _359  and  _361
REMARK  135  A    between atoms: _361  and  _362
REMARK  136  A    between atoms: _361  and  _364
REMARK  137  A    between atoms: _364  and  _365
REMARK  138  A    between atoms: _371  and  _373
REMARK  139  A    between atoms: _373  and  _374
REMARK  140  A    between atoms: _373  and  _376
REMARK  141  A    between atoms: _376  and  _377
REMARK  142  A    between atoms: _380  and  _382
REMARK  143  A    between atoms: _382  and  _383
REMARK  144  A    between atoms: _385  and  _387
REMARK  145  A    between atoms: _387  and  _388
REMARK  146  A    between atoms: _387  and  _390
REMARK  147  A    between atoms: _393  and  _395
REMARK  148  A    between atoms: _395  and  _396
REMARK  149  A    between atoms: _395  and  _398
REMARK  150  A    between atoms: _398  and  _399
REMARK  151  A    between atoms: _399  and  _400
REMARK  152  A    between atoms: _405  and  _407
REMARK  153  A    between atoms: _407  and  _408
REMARK  154  A    between atoms: _407  and  _410
REMARK  155  A    between atoms: _410  and  _411
REMARK  156  A    between atoms: _417  and  _419
REMARK  157  A    between atoms: _419  and  _420
REMARK  158  A    between atoms: _419  and  _422
REMARK  159  A    between atoms: _422  and  _423
REMARK  160  A    between atoms: _423  and  _424
REMARK  161  A    between atoms: _424  and  _425
REMARK  162  A    between atoms: _434  and  _436
REMARK  163  A    between atoms: _436  and  _437
REMARK  164  A    between atoms: _436  and  _439
REMARK  165  A    between atoms: _439  and  _440
REMARK  166  A    between atoms: _440  and  _441
REMARK  167  A    between atoms: _444  and  _445
REMARK  168  A    between atoms: _450  and  _452
REMARK  169  A    between atoms: _452  and  _453
REMARK  170  A    between atoms: _452  and  _455
REMARK  171  A    between atoms: _455  and  _456
REMARK  172  A    between atoms: _456  and  _457
REMARK  173  A    between atoms: _459  and  _461
REMARK  174  A    between atoms: _461  and  _462
REMARK  175  A    between atoms: _464  and  _466
REMARK  176  A    between atoms: _466  and  _467
REMARK  177  A    between atoms: _466  and  _469
REMARK  178  A    between atoms: _472  and  _474
REMARK  179  A    between atoms: _474  and  _475
REMARK  180  A    between atoms: _474  and  _477
REMARK  181  A    between atoms: _477  and  _478
REMARK  182  A    between atoms: _488  and  _490
REMARK  183  A    between atoms: _490  and  _491
REMARK  184  A    between atoms: _493  and  _495
REMARK  185  A    between atoms: _495  and  _496
REMARK  186  A    between atoms: _495  and  _498
REMARK  187  A    between atoms: _498  and  _499
REMARK  188  A    between atoms: _509  and  _511
REMARK  189  A    between atoms: _511  and  _512
REMARK                            x       y       z     vdW  Elec       q    Type
REMARK                         _______ _______ _______ _____ _____    ______ ____
ROOT
ATOM      1  CA  TYR A   1      31.293  19.972  18.520  0.00  0.00    +0.149 C 
ENDROOT
BRANCH   1   2
ATOM      2  C   TYR A   1      31.397  20.717  17.191  0.00  0.00    +0.239 C 
ATOM      3  N   GLY A   2      31.384  22.050  17.237  0.00  0.00    -0.297 N 
ATOM      4  H   GLY A   2      31.420  22.527  18.161  0.00  0.00    +0.150 HD
ATOM      5  O   TYR A   1      31.478  20.101  16.143  0.00  0.00    -0.274 OA
BRANCH   3   6
ATOM      6  CA  GLY A   2      31.321  22.856  16.020  0.00  0.00    +0.163 C 
BRANCH   6   7
ATOM      7  C   GLY A   2      32.544  22.782  15.125  0.00  0.00    +0.229 C 
ATOM      8  O   GLY A   2      32.436  22.814  13.892  0.00  0.00    -0.286 OA
ENDBRANCH   6   7
ENDBRANCH   3   6
ENDBRANCH   1   2
BRANCH   1   9
ATOM      9  N   TYR A   1      32.261  20.451  19.495  0.00  0.00    -0.238 NA
ATOM     10  H   TYR A   1      31.949  20.690  20.458  0.00  0.00    +0.142 HD
ENDBRANCH   1   9
BRANCH   1  11
ATOM     11  CB  TYR A   1      29.848  20.070  19.051  0.00  0.00    +0.053 C 
BRANCH  11  12
ATOM     12  CG  TYR A   1      28.931  19.381  18.094  0.00  0.00    -0.020 A 
ATOM     13  CD2 TYR A   1      28.733  18.004  18.159  0.00  0.00    -0.001 A 
ATOM     14  CE2 TYR A   1      27.933  17.354  17.211  0.00  0.00    +0.036 A 
ATOM     15  CZ  TYR A   1      27.364  18.084  16.199  0.00  0.00    +0.134 A 
ATOM     16  CE1 TYR A   1      27.577  19.448  16.110  0.00  0.00    +0.036 A 
ATOM     17  CD1 TYR A   1      28.365  20.076  17.038  0.00  0.00    -0.001 A 
BRANCH  15  18
ATOM     18  OH  TYR A   1      26.591  17.486  15.250  0.00  0.00    -0.506 OA
ATOM     19  HH  TYR A   1      25.686  17.886  15.263  0.00  0.00    +0.292 HD
ENDBRANCH  15  18
ENDBRANCH  11  12
ENDBRANCH   1  11
TORSDOF 7
REMARK  Name = ../refined-set-2016/2gh9/2gh9_pocket.pdb
REMARK  189 active torsions:
REMARK  status: ('A' for Active; 'I' for Inactive)
REMARK    1  A    between atoms: _1  and  _3
REMARK    2  A    between atoms: _3  and  _4
REMARK    3  A    between atoms: _3  and  _6
REMARK    4  A    between atoms: _6  and  _7
REMARK    5  A    between atoms: _10  and  _12
REMARK    6  A    between atoms: _12  and  _13
REMARK    7  A    between atoms: _12  and  _15
REMARK    8  A    between atoms: _15  and  _16
REMARK    9  A    between atoms: _21  and  _23
REMARK   10  A    between atoms: _23  and  _24
REMARK   11  A    between atoms: _23  and  _26
REMARK   12  A    between atoms: _26  and  _27
REMARK   13  A    between atoms: _33  and  _35
REMARK   14  A    between atoms: _35  and  _36
REMARK   15  A    between atoms: _38  and  _40
REMARK   16  A    between atoms: _40  and  _41
REMARK   17  A    between atoms: _40  and  _43
REMARK   18  A    between atoms: _43  and  _44
REMARK   19  A    between atoms: _44  and  _45
REMARK   20  A    between atoms: _48  and  _50
REMARK   21  A    between atoms: _50  and  _51
REMARK   22  A    between atoms: _50  and  _53
REMARK   23  A    between atoms: _57  and  _58
REMARK   24  A    between atoms: _63  and  _65
REMARK   25  A    between atoms: _65  and  _66
REMARK   26  A    between atoms: _65  and  _68
REMARK   27  A    between atoms: _68  and  _69
REMARK   28  A    between atoms: _75  and  _77
REMARK   29  A    between atoms: _77  and  _78
REMARK   30  A    between atoms: _81  and  _83
REMARK   31  A    between atoms: _83  and  _84
REMARK   32  A    between atoms: _83  and  _86
REMARK   33  A    between atoms: _86  and  _87
REMARK   34  A    between atoms: _87  and  _88
REMARK   35  A    between atoms: _91  and  _93
REMARK   36  A    between atoms: _93  and  _94
REMARK   37  A    between atoms: _93  and  _96
REMARK   38  A    between atoms: _96  and  _97
REMARK   39  A    between atoms: _100  and  _102
REMARK   40  A    between atoms: _102  and  _103
REMARK   41  A    between atoms: _102  and  _105
REMARK   42  A    between atoms: _105  and  _106
REMARK   43  A    between atoms: _106  and  _107
REMARK   44  A    between atoms: _107  and  _108
REMARK   45  A    between atoms: _108  and  _109
REMARK   46  A    between atoms: _113  and  _115
REMARK   47  A    between atoms: _115  and  _116
REMARK   48  A    between atoms: _115  and  _118
REMARK   49  A    between atoms: _118  and  _119
REMARK   50  A    between atoms: _122  and  _124
REMARK   51  A    between atoms: _124  and  _125
REMARK   52  A    between atoms: _124  and  _127
REMARK   53  A    between atoms: _131  and  _132
REMARK   54  A    between atoms: _137  and  _139
REMARK   55  A    between atoms: _139  and  _140
REMARK   56  A    between atoms: _139  and  _142
REMARK   57  A    between atoms: _142  and  _143
REMARK   58  A    between atoms: _148  and  _150
REMARK   59  A    between atoms: _150  and  _151
REMARK   60  A    between atoms: _150  and  _153
REMARK   61  A    between atoms: _153  and  _154
REMARK   62  A    between atoms: _157  and  _159
REMARK   63  A    between atoms: _159  and  _160
REMARK   64  A    between atoms: _159  and  _162
REMARK   65  A    between atoms: _162  and  _163
REMARK   66  A    between atoms: _173  and  _175
REMARK   67  A    between atoms: _175  and  _176
REMARK   68  A    between atoms: _175  and  _178
REMARK   69  A    between atoms: _181  and  _183
REMARK   70  A    between atoms: _183  and  _184
REMARK   71  A    between atoms: _183  and  _186
REMARK   72  A    between atoms: _186  and  _187
REMARK   73  A    between atoms: _187  and  _188
REMARK   74  A    between atoms: _191  and  _193
REMARK   75  A    between atoms: _193  and  _194
REMARK   76  A    between atoms: _193  and  _196
REMARK   77  A    between atoms: _196  and  _197
REMARK   78  A    between atoms: _197  and  _198
REMARK   79  A    between atoms: _201  and  _203
REMARK   80  A    between atoms: _203  and  _204
REMARK   81  A    between atoms: _203  and  _206
REMARK   82  A    between atoms: _206  and  _207
REMARK   83  A    between atoms: _209  and  _211
REMARK   84  A    between atoms: _211  and  _212
REMARK   85  A    between atoms: _211  and  _214
REMARK   86  A    between atoms: _217  and  _219
REMARK   87  A    between atoms: _219  and  _220
REMARK   88  A    between atoms: _219  and  _222
REMARK   89  A    between atoms: _222  and  _223
REMARK   90  A    between atoms: _228  and  _230
REMARK   91  A    between atoms: _230  and  _231
REMARK   92  A    between atoms: _233  and  _235
REMARK   93  A    between atoms: _235  and  _236
REMARK   94  A    between atoms: _235  and  _238
REMARK   95  A    between atoms: _238  and  _239
REMARK   96  A    between atoms: _243  and  _244
REMARK   97  A    between atoms: _249  and  _251
REMARK   98  A    between atoms: _251  and  _252
REMARK   99  A    between atoms: _251  and  _254
REMARK  100  A    between atoms: _254  and  _255
REMARK  101  A    between atoms: _260  and  _261
REMARK  102  A    between atoms: _263  and  _265
REMARK  103  A    between atoms: _265  and  _266
REMARK  104  A    between atoms: _265  and  _268
REMARK  105  A    between atoms: _268  and  _269
REMARK  106  A    between atoms: _275  and  _277
REMARK  107  A    between atoms: _277  and  _278
REMARK  108  A    between atoms: _277  and  _280
REMARK  109  A    between atoms: _280  and  _281
REMARK  110  A    between atoms: _286  and  _288
REMARK  111  A    between atoms: _288  and  _289
REMARK  112  A    between atoms: _288  and  _291
REMARK  113  A    between atoms: _291  and  _292
REMARK  114  A    between atoms: _297  and  _298
REMARK  115  A    between atoms: _300  and  _302
REMARK  116  A    between atoms: _302  and  _303
REMARK  117  A    between atoms: _305  and  _307
REMARK  118  A    between atoms: _307  and  _308
REMARK  119  A    between atoms: _307  and  _310
REMARK  120  A    between atoms: _310  and  _311
REMARK  121  A    between atoms: _314  and  _316
REMARK  122  A    between atoms: _316  and  _317
REMARK  123  A    between atoms: _316  and  _319
REMARK  124  A    between atoms: _319  and  _320
REMARK  125  A    between atoms: _325  and  _327
REMARK  126  A    between atoms: _327  and  _328
REMARK  127  A    between atoms: _331  and  _332
REMARK  128  A    between atoms: _337  and  _339
REMARK  129  A    between atoms: _339  and  _340
REMARK  130  A    between atoms: _339  and  _342
REMARK  131  A    between atoms: _342  and  _343
REMARK  132  A    between atoms: _353  and  _355
REMARK  133  A    between atoms: _355  and  _356
REMARK  134  A    between atoms: _359  and  _361
REMARK  135  A    between atoms: _361  and  _362
REMARK  136  A    between atoms: _361  and  _364
REMARK  137  A    between atoms: _364  and  _365
REMARK  138  A    between atoms: _371  and  _373
REMARK  139  A    between atoms: _373  and  _374
REMARK  140  A    between atoms: _373  and  _376
REMARK  141  A    between atoms: _376  and  _377
REMARK  142  A    between atoms: _380  and  _382
REMARK  143  A    between atoms: _382  and  _383
REMARK  144  A    between atoms: _385  and  _387
REMARK  145  A    between atoms: _387  and  _388
REMARK  146  A    between atoms: _387  and  _390
REMARK  147  A    between atoms: _393  and  _395
REMARK  148  A    between atoms: _395  and  _396
REMARK  149  A    between atoms: _395  and  _398
REMARK  150  A    between atoms: _398  and  _399
REMARK  151  A    between atoms: _399  and  _400
REMARK  152  A    between atoms: _405  and  _407
REMARK  153  A    between atoms: _407  and  _408
REMARK  154  A    between atoms: _407  and  _410
REMARK  155  A    between atoms: _410  and  _411
REMARK  156  A    between atoms: _417  and  _419
REMARK  157  A    between atoms: _419  and  _420
REMARK  158  A    between atoms: _419  and  _422
REMARK  159  A    between atoms: _422  and  _423
REMARK  160  A    between atoms: _423  and  _424
REMARK  161  A    between atoms: _424  and  _425
REMARK  162  A    between atoms: _434  and  _436
REMARK  163  A    between atoms: _436  and  _437
REMARK  164  A    between atoms: _436  and  _439
REMARK  165  A    between atoms: _439  and  _440
REMARK  166  A    between atoms: _440  and  _441
REMARK  167  A    between atoms: _444  and  _445
REMARK  168  A    between atoms: _450  and  _452
REMARK  169  A    between atoms: _452  and  _453
REMARK  170  A    between atoms: _452  and  _455
REMARK  171  A    between atoms: _455  and  _456
REMARK  172  A    between atoms: _456  and  _457
REMARK  173  A    between atoms: _459  and  _461
REMARK  174  A    between atoms: _461  and  _462
REMARK  175  A    between atoms: _464  and  _466
REMARK  176  A    between atoms: _466  and  _467
REMARK  177  A    between atoms: _466  and  _469
REMARK  178  A    between atoms: _472  and  _474
REMARK  179  A    between atoms: _474  and  _475
REMARK  180  A    between atoms: _474  and  _477
REMARK  181  A    between atoms: _477  and  _478
REMARK  182  A    between atoms: _488  and  _490
REMARK  183  A    between atoms: _490  and  _491
REMARK  184  A    between atoms: _493  and  _495
REMARK  185  A    between atoms: _495  and  _496
REMARK  186  A    between atoms: _495  and  _498
REMARK  187  A    between atoms: _498  and  _499
REMARK  188  A    between atoms: _509  and  _511
REMARK  189  A    between atoms: _511  and  _512
REMARK                            x       y       z     vdW  Elec       q    Type
REMARK                         _______ _______ _______ _____ _____    ______ ____
ROOT
ATOM      1  CA  ASP A   1      31.222  19.169  12.616  0.00  0.00    +0.144 C 
ENDROOT
BRANCH   1   2
ATOM      2  N   ASP A   1      32.354  19.233  13.510  0.00  0.00    -0.239 NA
ATOM      3  H   ASP A   1      32.237  19.643  14.458  0.00  0.00    +0.142 HD
ENDBRANCH   1   2
BRANCH   1   4
ATOM      4  C   ASP A   1      31.448  20.066  11.408  0.00  0.00    +0.225 C 
ATOM      5  O   ASP A   1      31.135  19.678  10.279  0.00  0.00    -0.287 OA
ENDBRANCH   1   4
BRANCH   1   6
ATOM      6  CB  ASP A   1      29.947  19.575  13.334  0.00  0.00    +0.139 C 
BRANCH   6   7
ATOM      7  CG  ASP A   1      28.720  19.345  12.486  0.00  0.00    +0.367 C 
ATOM      8  OD2 ASP A   1      27.927  20.295  12.347  0.00  0.00    -0.246 OA
ATOM      9  OD1 ASP A   1      28.562  18.229  11.954  0.00  0.00    -0.246 OA
ENDBRANCH   6   7
ENDBRANCH   1   6
TORSDOF 4
REMARK  Name = ../refined-set-2016/2gh9/2gh9_pocket.pdb
REMARK  189 active torsions:
REMARK  status: ('A' for Active; 'I' for Inactive)
REMARK    1  A    between atoms: _1  and  _3
REMARK    2  A    between atoms: _3  and  _4
REMARK    3  A    between atoms: _3  and  _6
REMARK    4  A    between atoms: _6  and  _7
REMARK    5  A    between atoms: _10  and  _12
REMARK    6  A    between atoms: _12  and  _13
REMARK    7  A    between atoms: _12  and  _15
REMARK    8  A    between atoms: _15  and  _16
REMARK    9  A    between atoms: _21  and  _23
REMARK   10  A    between atoms: _23  and  _24
REMARK   11  A    between atoms: _23  and  _26
REMARK   12  A    between atoms: _26  and  _27
REMARK   13  A    between atoms: _33  and  _35
REMARK   14  A    between atoms: _35  and  _36
REMARK   15  A    between atoms: _38  and  _40
REMARK   16  A    between atoms: _40  and  _41
REMARK   17  A    between atoms: _40  and  _43
REMARK   18  A    between atoms: _43  and  _44
REMARK   19  A    between atoms: _44  and  _45
REMARK   20  A    between atoms: _48  and  _50
REMARK   21  A    between atoms: _50  and  _51
REMARK   22  A    between atoms: _50  and  _53
REMARK   23  A    between atoms: _57  and  _58
REMARK   24  A    between atoms: _63  and  _65
REMARK   25  A    between atoms: _65  and  _66
REMARK   26  A    between atoms: _65  and  _68
REMARK   27  A    between atoms: _68  and  _69
REMARK   28  A    between atoms: _75  and  _77
REMARK   29  A    between atoms: _77  and  _78
REMARK   30  A    between atoms: _81  and  _83
REMARK   31  A    between atoms: _83  and  _84
REMARK   32  A    between atoms: _83  and  _86
REMARK   33  A    between atoms: _86  and  _87
REMARK   34  A    between atoms: _87  and  _88
REMARK   35  A    between atoms: _91  and  _93
REMARK   36  A    between atoms: _93  and  _94
REMARK   37  A    between atoms: _93  and  _96
REMARK   38  A    between atoms: _96  and  _97
REMARK   39  A    between atoms: _100  and  _102
REMARK   40  A    between atoms: _102  and  _103
REMARK   41  A    between atoms: _102  and  _105
REMARK   42  A    between atoms: _105  and  _106
REMARK   43  A    between atoms: _106  and  _107
REMARK   44  A    between atoms: _107  and  _108
REMARK   45  A    between atoms: _108  and  _109
REMARK   46  A    between atoms: _113  and  _115
REMARK   47  A    between atoms: _115  and  _116
REMARK   48  A    between atoms: _115  and  _118
REMARK   49  A    between atoms: _118  and  _119
REMARK   50  A    between atoms: _122  and  _124
REMARK   51  A    between atoms: _124  and  _125
REMARK   52  A    between atoms: _124  and  _127
REMARK   53  A    between atoms: _131  and  _132
REMARK   54  A    between atoms: _137  and  _139
REMARK   55  A    between atoms: _139  and  _140
REMARK   56  A    between atoms: _139  and  _142
REMARK   57  A    between atoms: _142  and  _143
REMARK   58  A    between atoms: _148  and  _150
REMARK   59  A    between atoms: _150  and  _151
REMARK   60  A    between atoms: _150  and  _153
REMARK   61  A    between atoms: _153  and  _154
REMARK   62  A    between atoms: _157  and  _159
REMARK   63  A    between atoms: _159  and  _160
REMARK   64  A    between atoms: _159  and  _162
REMARK   65  A    between atoms: _162  and  _163
REMARK   66  A    between atoms: _173  and  _175
REMARK   67  A    between atoms: _175  and  _176
REMARK   68  A    between atoms: _175  and  _178
REMARK   69  A    between atoms: _181  and  _183
REMARK   70  A    between atoms: _183  and  _184
REMARK   71  A    between atoms: _183  and  _186
REMARK   72  A    between atoms: _186  and  _187
REMARK   73  A    between atoms: _187  and  _188
REMARK   74  A    between atoms: _191  and  _193
REMARK   75  A    between atoms: _193  and  _194
REMARK   76  A    between atoms: _193  and  _196
REMARK   77  A    between atoms: _196  and  _197
REMARK   78  A    between atoms: _197  and  _198
REMARK   79  A    between atoms: _201  and  _203
REMARK   80  A    between atoms: _203  and  _204
REMARK   81  A    between atoms: _203  and  _206
REMARK   82  A    between atoms: _206  and  _207
REMARK   83  A    between atoms: _209  and  _211
REMARK   84  A    between atoms: _211  and  _212
REMARK   85  A    between atoms: _211  and  _214
REMARK   86  A    between atoms: _217  and  _219
REMARK   87  A    between atoms: _219  and  _220
REMARK   88  A    between atoms: _219  and  _222
REMARK   89  A    between atoms: _222  and  _223
REMARK   90  A    between atoms: _228  and  _230
REMARK   91  A    between atoms: _230  and  _231
REMARK   92  A    between atoms: _233  and  _235
REMARK   93  A    between atoms: _235  and  _236
REMARK   94  A    between atoms: _235  and  _238
REMARK   95  A    between atoms: _238  and  _239
REMARK   96  A    between atoms: _243  and  _244
REMARK   97  A    between atoms: _249  and  _251
REMARK   98  A    between atoms: _251  and  _252
REMARK   99  A    between atoms: _251  and  _254
REMARK  100  A    between atoms: _254  and  _255
REMARK  101  A    between atoms: _260  and  _261
REMARK  102  A    between atoms: _263  and  _265
REMARK  103  A    between atoms: _265  and  _266
REMARK  104  A    between atoms: _265  and  _268
REMARK  105  A    between atoms: _268  and  _269
REMARK  106  A    between atoms: _275  and  _277
REMARK  107  A    between atoms: _277  and  _278
REMARK  108  A    between atoms: _277  and  _280
REMARK  109  A    between atoms: _280  and  _281
REMARK  110  A    between atoms: _286  and  _288
REMARK  111  A    between atoms: _288  and  _289
REMARK  112  A    between atoms: _288  and  _291
REMARK  113  A    between atoms: _291  and  _292
REMARK  114  A    between atoms: _297  and  _298
REMARK  115  A    between atoms: _300  and  _302
REMARK  116  A    between atoms: _302  and  _303
REMARK  117  A    between atoms: _305  and  _307
REMARK  118  A    between atoms: _307  and  _308
REMARK  119  A    between atoms: _307  and  _310
REMARK  120  A    between atoms: _310  and  _311
REMARK  121  A    between atoms: _314  and  _316
REMARK  122  A    between atoms: _316  and  _317
REMARK  123  A    between atoms: _316  and  _319
REMARK  124  A    between atoms: _319  and  _320
REMARK  125  A    between atoms: _325  and  _327
REMARK  126  A    between atoms: _327  and  _328
REMARK  127  A    between atoms: _331  and  _332
REMARK  128  A    between atoms: _337  and  _339
REMARK  129  A    between atoms: _339  and  _340
REMARK  130  A    between atoms: _339  and  _342
REMARK  131  A    between atoms: _342  and  _343
REMARK  132  A    between atoms: _353  and  _355
REMARK  133  A    between atoms: _355  and  _356
REMARK  134  A    between atoms: _359  and  _361
REMARK  135  A    between atoms: _361  and  _362
REMARK  136  A    between atoms: _361  and  _364
REMARK  137  A    between atoms: _364  and  _365
REMARK  138  A    between atoms: _371  and  _373
REMARK  139  A    between atoms: _373  and  _374
REMARK  140  A    between atoms: _373  and  _376
REMARK  141  A    between atoms: _376  and  _377
REMARK  142  A    between atoms: _380  and  _382
REMARK  143  A    between atoms: _382  and  _383
REMARK  144  A    between atoms: _385  and  _387
REMARK  145  A    between atoms: _387  and  _388
REMARK  146  A    between atoms: _387  and  _390
REMARK  147  A    between atoms: _393  and  _395
REMARK  148  A    between atoms: _395  and  _396
REMARK  149  A    between atoms: _395  and  _398
REMARK  150  A    between atoms: _398  and  _399
REMARK  151  A    between atoms: _399  and  _400
REMARK  152  A    between atoms: _405  and  _407
REMARK  153  A    between atoms: _407  and  _408
REMARK  154  A    between atoms: _407  and  _410
REMARK  155  A    between atoms: _410  and  _411
REMARK  156  A    between atoms: _417  and  _419
REMARK  157  A    between atoms: _419  and  _420
REMARK  158  A    between atoms: _419  and  _422
REMARK  159  A    between atoms: _422  and  _423
REMARK  160  A    between atoms: _423  and  _424
REMARK  161  A    between atoms: _424  and  _425
REMARK  162  A    between atoms: _434  and  _436
REMARK  163  A    between atoms: _436  and  _437
REMARK  164  A    between atoms: _436  and  _439
REMARK  165  A    between atoms: _439  and  _440
REMARK  166  A    between atoms: _440  and  _441
REMARK  167  A    between atoms: _444  and  _445
REMARK  168  A    between atoms: _450  and  _452
REMARK  169  A    between atoms: _452  and  _453
REMARK  170  A    between atoms: _452  and  _455
REMARK  171  A    between atoms: _455  and  _456
REMARK  172  A    between atoms: _456  and  _457
REMARK  173  A    between atoms: _459  and  _461
REMARK  174  A    between atoms: _461  and  _462
REMARK  175  A    between atoms: _464  and  _466
REMARK  176  A    between atoms: _466  and  _467
REMARK  177  A    between atoms: _466  and  _469
REMARK  178  A    between atoms: _472  and  _474
REMARK  179  A    between atoms: _474  and  _475
REMARK  180  A    between atoms: _474  and  _477
REMARK  181  A    between atoms: _477  and  _478
REMARK  182  A    between atoms: _488  and  _490
REMARK  183  A    between atoms: _490  and  _491
REMARK  184  A    between atoms: _493  and  _495
REMARK  185  A    between atoms: _495  and  _496
REMARK  186  A    between atoms: _495  and  _498
REMARK  187  A    between atoms: _498  and  _499
REMARK  188  A    between atoms: _509  and  _511
REMARK  189  A    between atoms: _511  and  _512
REMARK                            x       y       z     vdW  Elec       q    Type
REMARK                         _______ _______ _______ _____ _____    ______ ____
ROOT
ATOM      1  C   PRO A   3      21.790  12.340  12.795  0.00  0.00    +0.241 C 
ATOM      2  N   TRP A   4      21.746  13.035  13.926  0.00  0.00    -0.297 N 
ATOM      3  H   TRP A   4      22.021  12.564  14.811  0.00  0.00    +0.150 HD
ATOM      4  O   PRO A   3      21.346  12.754  11.730  0.00  0.00    -0.273 OA
ENDROOT
BRANCH   1  10
ATOM      5  C   GLY A   2      24.437  11.395  14.207  0.00  0.00    +0.246 C 
ATOM      6  N   PRO A   3      23.291  10.726  14.031  0.00  0.00    -0.272 N 
ATOM      7  CD  PRO A   3      22.754   9.670  14.904  0.00  0.00    +0.094 C 
ATOM      8  CG  PRO A   3      21.378   9.456  14.389  0.00  0.00    +0.024 C 
ATOM      9  CB  PRO A   3      21.392   9.824  12.970  0.00  0.00    +0.031 C 
ATOM     10  CA  PRO A   3      22.440  10.946  12.857  0.00  0.00    +0.152 C 
ATOM     11  O   GLY A   2      24.755  12.391  13.533  0.00  0.00    -0.273 OA
BRANCH   5  12
ATOM     12  CA  GLY A   2      25.334  10.878  15.314  0.00  0.00    +0.176 C 
BRANCH  12  14
ATOM     13  C   ASN A   1      27.758  11.013  15.225  0.00  0.00    +0.239 C 
ATOM     14  N   GLY A   2      26.581  11.583  15.453  0.00  0.00    -0.296 N 
ATOM     15  H   GLY A   2      26.559  12.581  15.744  0.00  0.00    +0.150 HD
ATOM     16  O   ASN A   1      27.875   9.873  14.801  0.00  0.00    -0.274 OA
BRANCH  13  17
ATOM     17  CA  ASN A   1      29.004  11.882  15.509  0.00  0.00    +0.154 C 
BRANCH  17  18
ATOM     18  N   ASN A   1      30.222  11.075  15.383  0.00  0.00    -0.238 NA
ATOM     19  H   ASN A   1      30.191  10.209  14.808  0.00  0.00    +0.142 HD
ENDBRANCH  17  18
BRANCH  17  20
ATOM     20  CB  ASN A   1      29.073  13.066  14.535  0.00  0.00    +0.111 C 
BRANCH  20  21
ATOM     21  CG  ASN A   1      28.234  14.252  14.982  0.00  0.00    +0.221 C 
ATOM     22  OD1 ASN A   1      27.627  14.243  16.063  0.00  0.00    -0.275 OA
ATOM     23  ND2 ASN A   1      28.234  15.310  14.166  0.00  0.00    -0.329 N 
ATOM     24 HD21 ASN A   1      27.711  16.169  14.429  0.00  0.00    +0.145 HD
ATOM     25 HD22 ASN A   1      28.757  15.274  13.268  0.00  0.00    +0.145 HD
ENDBRANCH  20  21
ENDBRANCH  17  20
ENDBRANCH  13  17
ENDBRANCH  12  14
ENDBRANCH   5  12
ENDBRANCH   1  10
BRANCH   2  26
ATOM     26  CA  TRP A   4      21.327  14.433  13.978  0.00  0.00    +0.153 C 
BRANCH  26  27
ATOM     27  C   TRP A   4      22.129  15.361  13.080  0.00  0.00    +0.241 C 
ATOM     28  O   TRP A   4      21.676  16.480  12.810  0.00  0.00    -0.273 OA
ATOM     29  N   ALA A   5      23.329  14.930  12.675  0.00  0.00    -0.298 N 
ATOM     30  H   ALA A   5      23.619  13.966  12.936  0.00  0.00    +0.150 HD
BRANCH  29  31
ATOM     31  CA  ALA A   5      24.259  15.745  11.882  0.00  0.00    +0.137 C 
ATOM     32  CB  ALA A   5      25.698  15.457  12.331  0.00  0.00    +0.030 C 
BRANCH  31  33
ATOM     33  C   ALA A   5      24.117  15.480  10.366  0.00  0.00    +0.227 C 
ATOM     34  O   ALA A   5      24.639  16.239   9.550  0.00  0.00    -0.286 OA
ENDBRANCH  31  33
ENDBRANCH  29  31
ENDBRANCH  26  27
BRANCH  26  35
ATOM     35  CB  TRP A   4      21.400  14.987  15.420  0.00  0.00    +0.057 C 
BRANCH  35  36
ATOM     36  CG  TRP A   4      22.732  14.810  16.038  0.00  0.00    -0.002 A 
ATOM     37  CD2 TRP A   4      23.122  13.730  16.877  0.00  0.00    +0.013 A 
ATOM     38  CE3 TRP A   4      22.452  12.603  17.379  0.00  0.00    +0.001 A 
ATOM     39  CZ3 TRP A   4      23.136  11.748  18.221  0.00  0.00    +0.000 A 
ATOM     40  CH2 TRP A   4      24.487  11.975  18.541  0.00  0.00    +0.001 A 
ATOM     41  CZ2 TRP A   4      25.166  13.055  18.062  0.00  0.00    +0.017 A 
ATOM     42  CE2 TRP A   4      24.479  13.924  17.215  0.00  0.00    +0.056 A 
ATOM     43  NE1 TRP A   4      24.899  15.077  16.606  0.00  0.00    -0.352 N 
ATOM     44  HE1 TRP A   4      25.854  15.483  16.667  0.00  0.00    +0.166 HD
ATOM     45  CD1 TRP A   4      23.836  15.611  15.894  0.00  0.00    +0.068 A 
ENDBRANCH  35  36
ENDBRANCH  26  35
ENDBRANCH   2  26
TORSDOF 13
REMARK  Name = ../refined-set-2016/2gh9/2gh9_pocket.pdb
REMARK  189 active torsions:
REMARK  status: ('A' for Active; 'I' for Inactive)
REMARK    1  A    between atoms: _1  and  _3
REMARK    2  A    between atoms: _3  and  _4
REMARK    3  A    between atoms: _3  and  _6
REMARK    4  A    between atoms: _6  and  _7
REMARK    5  A    between atoms: _10  and  _12
REMARK    6  A    between atoms: _12  and  _13
REMARK    7  A    between atoms: _12  and  _15
REMARK    8  A    between atoms: _15  and  _16
REMARK    9  A    between atoms: _21  and  _23
REMARK   10  A    between atoms: _23  and  _24
REMARK   11  A    between atoms: _23  and  _26
REMARK   12  A    between atoms: _26  and  _27
REMARK   13  A    between atoms: _33  and  _35
REMARK   14  A    between atoms: _35  and  _36
REMARK   15  A    between atoms: _38  and  _40
REMARK   16  A    between atoms: _40  and  _41
REMARK   17  A    between atoms: _40  and  _43
REMARK   18  A    between atoms: _43  and  _44
REMARK   19  A    between atoms: _44  and  _45
REMARK   20  A    between atoms: _48  and  _50
REMARK   21  A    between atoms: _50  and  _51
REMARK   22  A    between atoms: _50  and  _53
REMARK   23  A    between atoms: _57  and  _58
REMARK   24  A    between atoms: _63  and  _65
REMARK   25  A    between atoms: _65  and  _66
REMARK   26  A    between atoms: _65  and  _68
REMARK   27  A    between atoms: _68  and  _69
REMARK   28  A    between atoms: _75  and  _77
REMARK   29  A    between atoms: _77  and  _78
REMARK   30  A    between atoms: _81  and  _83
REMARK   31  A    between atoms: _83  and  _84
REMARK   32  A    between atoms: _83  and  _86
REMARK   33  A    between atoms: _86  and  _87
REMARK   34  A    between atoms: _87  and  _88
REMARK   35  A    between atoms: _91  and  _93
REMARK   36  A    between atoms: _93  and  _94
REMARK   37  A    between atoms: _93  and  _96
REMARK   38  A    between atoms: _96  and  _97
REMARK   39  A    between atoms: _100  and  _102
REMARK   40  A    between atoms: _102  and  _103
REMARK   41  A    between atoms: _102  and  _105
REMARK   42  A    between atoms: _105  and  _106
REMARK   43  A    between atoms: _106  and  _107
REMARK   44  A    between atoms: _107  and  _108
REMARK   45  A    between atoms: _108  and  _109
REMARK   46  A    between atoms: _113  and  _115
REMARK   47  A    between atoms: _115  and  _116
REMARK   48  A    between atoms: _115  and  _118
REMARK   49  A    between atoms: _118  and  _119
REMARK   50  A    between atoms: _122  and  _124
REMARK   51  A    between atoms: _124  and  _125
REMARK   52  A    between atoms: _124  and  _127
REMARK   53  A    between atoms: _131  and  _132
REMARK   54  A    between atoms: _137  and  _139
REMARK   55  A    between atoms: _139  and  _140
REMARK   56  A    between atoms: _139  and  _142
REMARK   57  A    between atoms: _142  and  _143
REMARK   58  A    between atoms: _148  and  _150
REMARK   59  A    between atoms: _150  and  _151
REMARK   60  A    between atoms: _150  and  _153
REMARK   61  A    between atoms: _153  and  _154
REMARK   62  A    between atoms: _157  and  _159
REMARK   63  A    between atoms: _159  and  _160
REMARK   64  A    between atoms: _159  and  _162
REMARK   65  A    between atoms: _162  and  _163
REMARK   66  A    between atoms: _173  and  _175
REMARK   67  A    between atoms: _175  and  _176
REMARK   68  A    between atoms: _175  and  _178
REMARK   69  A    between atoms: _181  and  _183
REMARK   70  A    between atoms: _183  and  _184
REMARK   71  A    between atoms: _183  and  _186
REMARK   72  A    between atoms: _186  and  _187
REMARK   73  A    between atoms: _187  and  _188
REMARK   74  A    between atoms: _191  and  _193
REMARK   75  A    between atoms: _193  and  _194
REMARK   76  A    between atoms: _193  and  _196
REMARK   77  A    between atoms: _196  and  _197
REMARK   78  A    between atoms: _197  and  _198
REMARK   79  A    between atoms: _201  and  _203
REMARK   80  A    between atoms: _203  and  _204
REMARK   81  A    between atoms: _203  and  _206
REMARK   82  A    between atoms: _206  and  _207
REMARK   83  A    between atoms: _209  and  _211
REMARK   84  A    between atoms: _211  and  _212
REMARK   85  A    between atoms: _211  and  _214
REMARK   86  A    between atoms: _217  and  _219
REMARK   87  A    between atoms: _219  and  _220
REMARK   88  A    between atoms: _219  and  _222
REMARK   89  A    between atoms: _222  and  _223
REMARK   90  A    between atoms: _228  and  _230
REMARK   91  A    between atoms: _230  and  _231
REMARK   92  A    between atoms: _233  and  _235
REMARK   93  A    between atoms: _235  and  _236
REMARK   94  A    between atoms: _235  and  _238
REMARK   95  A    between atoms: _238  and  _239
REMARK   96  A    between atoms: _243  and  _244
REMARK   97  A    between atoms: _249  and  _251
REMARK   98  A    between atoms: _251  and  _252
REMARK   99  A    between atoms: _251  and  _254
REMARK  100  A    between atoms: _254  and  _255
REMARK  101  A    between atoms: _260  and  _261
REMARK  102  A    between atoms: _263  and  _265
REMARK  103  A    between atoms: _265  and  _266
REMARK  104  A    between atoms: _265  and  _268
REMARK  105  A    between atoms: _268  and  _269
REMARK  106  A    between atoms: _275  and  _277
REMARK  107  A    between atoms: _277  and  _278
REMARK  108  A    between atoms: _277  and  _280
REMARK  109  A    between atoms: _280  and  _281
REMARK  110  A    between atoms: _286  and  _288
REMARK  111  A    between atoms: _288  and  _289
REMARK  112  A    between atoms: _288  and  _291
REMARK  113  A    between atoms: _291  and  _292
REMARK  114  A    between atoms: _297  and  _298
REMARK  115  A    between atoms: _300  and  _302
REMARK  116  A    between atoms: _302  and  _303
REMARK  117  A    between atoms: _305  and  _307
REMARK  118  A    between atoms: _307  and  _308
REMARK  119  A    between atoms: _307  and  _310
REMARK  120  A    between atoms: _310  and  _311
REMARK  121  A    between atoms: _314  and  _316
REMARK  122  A    between atoms: _316  and  _317
REMARK  123  A    between atoms: _316  and  _319
REMARK  124  A    between atoms: _319  and  _320
REMARK  125  A    between atoms: _325  and  _327
REMARK  126  A    between atoms: _327  and  _328
REMARK  127  A    between atoms: _331  and  _332
REMARK  128  A    between atoms: _337  and  _339
REMARK  129  A    between atoms: _339  and  _340
REMARK  130  A    between atoms: _339  and  _342
REMARK  131  A    between atoms: _342  and  _343
REMARK  132  A    between atoms: _353  and  _355
REMARK  133  A    between atoms: _355  and  _356
REMARK  134  A    between atoms: _359  and  _361
REMARK  135  A    between atoms: _361  and  _362
REMARK  136  A    between atoms: _361  and  _364
REMARK  137  A    between atoms: _364  and  _365
REMARK  138  A    between atoms: _371  and  _373
REMARK  139  A    between atoms: _373  and  _374
REMARK  140  A    between atoms: _373  and  _376
REMARK  141  A    between atoms: _376  and  _377
REMARK  142  A    between atoms: _380  and  _382
REMARK  143  A    between atoms: _382  and  _383
REMARK  144  A    between atoms: _385  and  _387
REMARK  145  A    between atoms: _387  and  _388
REMARK  146  A    between atoms: _387  and  _390
REMARK  147  A    between atoms: _393  and  _395
REMARK  148  A    between atoms: _395  and  _396
REMARK  149  A    between atoms: _395  and  _398
REMARK  150  A    between atoms: _398  and  _399
REMARK  151  A    between atoms: _399  and  _400
REMARK  152  A    between atoms: _405  and  _407
REMARK  153  A    between atoms: _407  and  _408
REMARK  154  A    between atoms: _407  and  _410
REMARK  155  A    between atoms: _410  and  _411
REMARK  156  A    between atoms: _417  and  _419
REMARK  157  A    between atoms: _419  and  _420
REMARK  158  A    between atoms: _419  and  _422
REMARK  159  A    between atoms: _422  and  _423
REMARK  160  A    between atoms: _423  and  _424
REMARK  161  A    between atoms: _424  and  _425
REMARK  162  A    between atoms: _434  and  _436
REMARK  163  A    between atoms: _436  and  _437
REMARK  164  A    between atoms: _436  and  _439
REMARK  165  A    between atoms: _439  and  _440
REMARK  166  A    between atoms: _440  and  _441
REMARK  167  A    between atoms: _444  and  _445
REMARK  168  A    between atoms: _450  and  _452
REMARK  169  A    between atoms: _452  and  _453
REMARK  170  A    between atoms: _452  and  _455
REMARK  171  A    between atoms: _455  and  _456
REMARK  172  A    between atoms: _456  and  _457
REMARK  173  A    between atoms: _459  and  _461
REMARK  174  A    between atoms: _461  and  _462
REMARK  175  A    between atoms: _464  and  _466
REMARK  176  A    between atoms: _466  and  _467
REMARK  177  A    between atoms: _466  and  _469
REMARK  178  A    between atoms: _472  and  _474
REMARK  179  A    between atoms: _474  and  _475
REMARK  180  A    between atoms: _474  and  _477
REMARK  181  A    between atoms: _477  and  _478
REMARK  182  A    between atoms: _488  and  _490
REMARK  183  A    between atoms: _490  and  _491
REMARK  184  A    between atoms: _493  and  _495
REMARK  185  A    between atoms: _495  and  _496
REMARK  186  A    between atoms: _495  and  _498
REMARK  187  A    between atoms: _498  and  _499
REMARK  188  A    between atoms: _509  and  _511
REMARK  189  A    between atoms: _511  and  _512
REMARK                            x       y       z     vdW  Elec       q    Type
REMARK                         _______ _______ _______ _____ _____    ______ ____
ROOT
ATOM      1  C   LEU A   2      20.584   5.899  23.197  0.00  0.00    +0.241 C 
ATOM      2  O   LEU A   2      20.431   5.964  24.427  0.00  0.00    -0.273 OA
ATOM      3  N   GLY A   3      20.135   6.815  22.363  0.00  0.00    -0.295 N 
ATOM      4  H   GLY A   3      20.379   6.741  21.355  0.00  0.00    +0.150 HD
ENDROOT
BRANCH   3   5
ATOM      5  CA  GLY A   3      19.317   7.916  22.803  0.00  0.00    +0.176 C 
BRANCH   5   6
ATOM      6  C   GLY A   3      18.013   7.808  22.066  0.00  0.00    +0.243 C 
ATOM      7  N   VAL A   4      16.922   8.106  22.757  0.00  0.00    -0.297 N 
ATOM      8  H   VAL A   4      17.001   8.271  23.781  0.00  0.00    +0.150 HD
ATOM      9  O   GLY A   3      17.999   7.464  20.897  0.00  0.00    -0.273 OA
BRANCH   7  10
ATOM     10  CA  VAL A   4      15.623   8.208  22.126  0.00  0.00    +0.149 C 
BRANCH  10  11
ATOM     11  C   VAL A   4      15.157   9.643  22.237  0.00  0.00    +0.241 C 
ATOM     12  O   VAL A   4      15.111  10.211  23.341  0.00  0.00    -0.273 OA
ATOM     13  N   GLN A   5      14.840  10.232  21.085  0.00  0.00    -0.298 N 
ATOM     14  H   GLN A   5      15.028   9.730  20.194  0.00  0.00    +0.150 HD
BRANCH  13  15
ATOM     15  CA  GLN A   5      14.243  11.548  21.036  0.00  0.00    +0.137 C 
BRANCH  15  16
ATOM     16  C   GLN A   5      12.721  11.401  20.986  0.00  0.00    +0.227 C 
ATOM     17  O   GLN A   5      12.202  10.619  20.203  0.00  0.00    -0.286 OA
ENDBRANCH  15  16
BRANCH  15  18
ATOM     18  CB  GLN A   5      14.732  12.312  19.813  0.00  0.00    +0.037 C 
BRANCH  18  19
ATOM     19  CG  GLN A   5      16.229  12.611  19.804  0.00  0.00    +0.087 C 
BRANCH  19  20
ATOM     20  CD  GLN A   5      16.620  13.857  20.581  0.00  0.00    +0.219 C 
ATOM     21  NE2 GLN A   5      17.857  13.878  21.063  0.00  0.00    -0.329 N 
ATOM     22 HE21 GLN A   5      18.193  14.705  21.597  0.00  0.00    +0.145 HD
ATOM     23 HE22 GLN A   5      18.490  13.068  20.906  0.00  0.00    +0.145 HD
ATOM     24  OE1 GLN A   5      15.835  14.788  20.739  0.00  0.00    -0.275 OA
ENDBRANCH  19  20
ENDBRANCH  18  19
ENDBRANCH  15  18
ENDBRANCH  13  15
ENDBRANCH  10  11
BRANCH  10  25
ATOM     25  CB  VAL A   4      14.591   7.246  22.752  0.00  0.00    +0.027 C 
ATOM     26  CG2 VAL A   4      15.111   5.823  22.728  0.00  0.00    +0.002 C 
ATOM     27  CG1 VAL A   4      13.286   7.357  22.023  0.00  0.00    +0.002 C 
ENDBRANCH  10  25
ENDBRANCH   7  10
ENDBRANCH   5   6
ENDBRANCH   3   5
BRANCH   1  28
ATOM     28  CA  LEU A   2      21.419   4.806  22.565  0.00  0.00    +0.149 C 
BRANCH  28  30
ATOM     29  C   PHE A   1      23.749   5.285  23.140  0.00  0.00    +0.239 C 
ATOM     30  N   LEU A   2      22.594   4.684  23.404  0.00  0.00    -0.297 N 
ATOM     31  H   LEU A   2      22.530   4.095  24.258  0.00  0.00    +0.150 HD
ATOM     32  O   PHE A   1      24.019   5.773  22.047  0.00  0.00    -0.274 OA
BRANCH  29  33
ATOM     33  CA  PHE A   1      24.753   5.338  24.297  0.00  0.00    +0.149 C 
BRANCH  33  34
ATOM     34  N   PHE A   1      26.110   5.114  23.820  0.00  0.00    -0.238 NA
ATOM     35  H   PHE A   1      26.820   5.863  23.946  0.00  0.00    +0.142 HD
ENDBRANCH  33  34
BRANCH  33  36
ATOM     36  CB  PHE A   1      24.595   6.714  24.963  0.00  0.00    +0.053 C 
BRANCH  36  37
ATOM     37  CG  PHE A   1      25.115   6.811  26.379  0.00  0.00    -0.020 A 
ATOM     38  CD2 PHE A   1      24.729   5.896  27.350  0.00  0.00    -0.004 A 
ATOM     39  CE2 PHE A   1      25.157   6.021  28.669  0.00  0.00    -0.000 A 
ATOM     40  CZ  PHE A   1      25.973   7.080  29.036  0.00  0.00    -0.000 A 
ATOM     41  CE1 PHE A   1      26.354   8.025  28.080  0.00  0.00    -0.000 A 
ATOM     42  CD1 PHE A   1      25.924   7.883  26.752  0.00  0.00    -0.004 A 
ENDBRANCH  36  37
ENDBRANCH  33  36
ENDBRANCH  29  33
ENDBRANCH  28  30
BRANCH  28  43
ATOM     43  CB  LEU A   2      20.655   3.476  22.460  0.00  0.00    +0.029 C 
BRANCH  43  44
ATOM     44  CG  LEU A   2      21.530   2.295  22.007  0.00  0.00    +0.002 C 
ATOM     45  CD2 LEU A   2      20.815   0.952  22.129  0.00  0.00    +0.000 C 
ATOM     46  CD1 LEU A   2      22.041   2.486  20.577  0.00  0.00    +0.000 C 
ENDBRANCH  43  44
ENDBRANCH  28  43
ENDBRANCH   1  28
TORSDOF 18
REMARK  Name = ../refined-set-2016/2gh9/2gh9_pocket.pdb
REMARK  189 active torsions:
REMARK  status: ('A' for Active; 'I' for Inactive)
REMARK    1  A    between atoms: _1  and  _3
REMARK    2  A    between atoms: _3  and  _4
REMARK    3  A    between atoms: _3  and  _6
REMARK    4  A    between atoms: _6  and  _7
REMARK    5  A    between atoms: _10  and  _12
REMARK    6  A    between atoms: _12  and  _13
REMARK    7  A    between atoms: _12  and  _15
REMARK    8  A    between atoms: _15  and  _16
REMARK    9  A    between atoms: _21  and  _23
REMARK   10  A    between atoms: _23  and  _24
REMARK   11  A    between atoms: _23  and  _26
REMARK   12  A    between atoms: _26  and  _27
REMARK   13  A    between atoms: _33  and  _35
REMARK   14  A    between atoms: _35  and  _36
REMARK   15  A    between atoms: _38  and  _40
REMARK   16  A    between atoms: _40  and  _41
REMARK   17  A    between atoms: _40  and  _43
REMARK   18  A    between atoms: _43  and  _44
REMARK   19  A    between atoms: _44  and  _45
REMARK   20  A    between atoms: _48  and  _50
REMARK   21  A    between atoms: _50  and  _51
REMARK   22  A    between atoms: _50  and  _53
REMARK   23  A    between atoms: _57  and  _58
REMARK   24  A    between atoms: _63  and  _65
REMARK   25  A    between atoms: _65  and  _66
REMARK   26  A    between atoms: _65  and  _68
REMARK   27  A    between atoms: _68  and  _69
REMARK   28  A    between atoms: _75  and  _77
REMARK   29  A    between atoms: _77  and  _78
REMARK   30  A    between atoms: _81  and  _83
REMARK   31  A    between atoms: _83  and  _84
REMARK   32  A    between atoms: _83  and  _86
REMARK   33  A    between atoms: _86  and  _87
REMARK   34  A    between atoms: _87  and  _88
REMARK   35  A    between atoms: _91  and  _93
REMARK   36  A    between atoms: _93  and  _94
REMARK   37  A    between atoms: _93  and  _96
REMARK   38  A    between atoms: _96  and  _97
REMARK   39  A    between atoms: _100  and  _102
REMARK   40  A    between atoms: _102  and  _103
REMARK   41  A    between atoms: _102  and  _105
REMARK   42  A    between atoms: _105  and  _106
REMARK   43  A    between atoms: _106  and  _107
REMARK   44  A    between atoms: _107  and  _108
REMARK   45  A    between atoms: _108  and  _109
REMARK   46  A    between atoms: _113  and  _115
REMARK   47  A    between atoms: _115  and  _116
REMARK   48  A    between atoms: _115  and  _118
REMARK   49  A    between atoms: _118  and  _119
REMARK   50  A    between atoms: _122  and  _124
REMARK   51  A    between atoms: _124  and  _125
REMARK   52  A    between atoms: _124  and  _127
REMARK   53  A    between atoms: _131  and  _132
REMARK   54  A    between atoms: _137  and  _139
REMARK   55  A    between atoms: _139  and  _140
REMARK   56  A    between atoms: _139  and  _142
REMARK   57  A    between atoms: _142  and  _143
REMARK   58  A    between atoms: _148  and  _150
REMARK   59  A    between atoms: _150  and  _151
REMARK   60  A    between atoms: _150  and  _153
REMARK   61  A    between atoms: _153  and  _154
REMARK   62  A    between atoms: _157  and  _159
REMARK   63  A    between atoms: _159  and  _160
REMARK   64  A    between atoms: _159  and  _162
REMARK   65  A    between atoms: _162  and  _163
REMARK   66  A    between atoms: _173  and  _175
REMARK   67  A    between atoms: _175  and  _176
REMARK   68  A    between atoms: _175  and  _178
REMARK   69  A    between atoms: _181  and  _183
REMARK   70  A    between atoms: _183  and  _184
REMARK   71  A    between atoms: _183  and  _186
REMARK   72  A    between atoms: _186  and  _187
REMARK   73  A    between atoms: _187  and  _188
REMARK   74  A    between atoms: _191  and  _193
REMARK   75  A    between atoms: _193  and  _194
REMARK   76  A    between atoms: _193  and  _196
REMARK   77  A    between atoms: _196  and  _197
REMARK   78  A    between atoms: _197  and  _198
REMARK   79  A    between atoms: _201  and  _203
REMARK   80  A    between atoms: _203  and  _204
REMARK   81  A    between atoms: _203  and  _206
REMARK   82  A    between atoms: _206  and  _207
REMARK   83  A    between atoms: _209  and  _211
REMARK   84  A    between atoms: _211  and  _212
REMARK   85  A    between atoms: _211  and  _214
REMARK   86  A    between atoms: _217  and  _219
REMARK   87  A    between atoms: _219  and  _220
REMARK   88  A    between atoms: _219  and  _222
REMARK   89  A    between atoms: _222  and  _223
REMARK   90  A    between atoms: _228  and  _230
REMARK   91  A    between atoms: _230  and  _231
REMARK   92  A    between atoms: _233  and  _235
REMARK   93  A    between atoms: _235  and  _236
REMARK   94  A    between atoms: _235  and  _238
REMARK   95  A    between atoms: _238  and  _239
REMARK   96  A    between atoms: _243  and  _244
REMARK   97  A    between atoms: _249  and  _251
REMARK   98  A    between atoms: _251  and  _252
REMARK   99  A    between atoms: _251  and  _254
REMARK  100  A    between atoms: _254  and  _255
REMARK  101  A    between atoms: _260  and  _261
REMARK  102  A    between atoms: _263  and  _265
REMARK  103  A    between atoms: _265  and  _266
REMARK  104  A    between atoms: _265  and  _268
REMARK  105  A    between atoms: _268  and  _269
REMARK  106  A    between atoms: _275  and  _277
REMARK  107  A    between atoms: _277  and  _278
REMARK  108  A    between atoms: _277  and  _280
REMARK  109  A    between atoms: _280  and  _281
REMARK  110  A    between atoms: _286  and  _288
REMARK  111  A    between atoms: _288  and  _289
REMARK  112  A    between atoms: _288  and  _291
REMARK  113  A    between atoms: _291  and  _292
REMARK  114  A    between atoms: _297  and  _298
REMARK  115  A    between atoms: _300  and  _302
REMARK  116  A    between atoms: _302  and  _303
REMARK  117  A    between atoms: _305  and  _307
REMARK  118  A    between atoms: _307  and  _308
REMARK  119  A    between atoms: _307  and  _310
REMARK  120  A    between atoms: _310  and  _311
REMARK  121  A    between atoms: _314  and  _316
REMARK  122  A    between atoms: _316  and  _317
REMARK  123  A    between atoms: _316  and  _319
REMARK  124  A    between atoms: _319  and  _320
REMARK  125  A    between atoms: _325  and  _327
REMARK  126  A    between atoms: _327  and  _328
REMARK  127  A    between atoms: _331  and  _332
REMARK  128  A    between atoms: _337  and  _339
REMARK  129  A    between atoms: _339  and  _340
REMARK  130  A    between atoms: _339  and  _342
REMARK  131  A    between atoms: _342  and  _343
REMARK  132  A    between atoms: _353  and  _355
REMARK  133  A    between atoms: _355  and  _356
REMARK  134  A    between atoms: _359  and  _361
REMARK  135  A    between atoms: _361  and  _362
REMARK  136  A    between atoms: _361  and  _364
REMARK  137  A    between atoms: _364  and  _365
REMARK  138  A    between atoms: _371  and  _373
REMARK  139  A    between atoms: _373  and  _374
REMARK  140  A    between atoms: _373  and  _376
REMARK  141  A    between atoms: _376  and  _377
REMARK  142  A    between atoms: _380  and  _382
REMARK  143  A    between atoms: _382  and  _383
REMARK  144  A    between atoms: _385  and  _387
REMARK  145  A    between atoms: _387  and  _388
REMARK  146  A    between atoms: _387  and  _390
REMARK  147  A    between atoms: _393  and  _395
REMARK  148  A    between atoms: _395  and  _396
REMARK  149  A    between atoms: _395  and  _398
REMARK  150  A    between atoms: _398  and  _399
REMARK  151  A    between atoms: _399  and  _400
REMARK  152  A    between atoms: _405  and  _407
REMARK  153  A    between atoms: _407  and  _408
REMARK  154  A    between atoms: _407  and  _410
REMARK  155  A    between atoms: _410  and  _411
REMARK  156  A    between atoms: _417  and  _419
REMARK  157  A    between atoms: _419  and  _420
REMARK  158  A    between atoms: _419  and  _422
REMARK  159  A    between atoms: _422  and  _423
REMARK  160  A    between atoms: _423  and  _424
REMARK  161  A    between atoms: _424  and  _425
REMARK  162  A    between atoms: _434  and  _436
REMARK  163  A    between atoms: _436  and  _437
REMARK  164  A    between atoms: _436  and  _439
REMARK  165  A    between atoms: _439  and  _440
REMARK  166  A    between atoms: _440  and  _441
REMARK  167  A    between atoms: _444  and  _445
REMARK  168  A    between atoms: _450  and  _452
REMARK  169  A    between atoms: _452  and  _453
REMARK  170  A    between atoms: _452  and  _455
REMARK  171  A    between atoms: _455  and  _456
REMARK  172  A    between atoms: _456  and  _457
REMARK  173  A    between atoms: _459  and  _461
REMARK  174  A    between atoms: _461  and  _462
REMARK  175  A    between atoms: _464  and  _466
REMARK  176  A    between atoms: _466  and  _467
REMARK  177  A    between atoms: _466  and  _469
REMARK  178  A    between atoms: _472  and  _474
REMARK  179  A    between atoms: _474  and  _475
REMARK  180  A    between atoms: _474  and  _477
REMARK  181  A    between atoms: _477  and  _478
REMARK  182  A    between atoms: _488  and  _490
REMARK  183  A    between atoms: _490  and  _491
REMARK  184  A    between atoms: _493  and  _495
REMARK  185  A    between atoms: _495  and  _496
REMARK  186  A    between atoms: _495  and  _498
REMARK  187  A    between atoms: _498  and  _499
REMARK  188  A    between atoms: _509  and  _511
REMARK  189  A    between atoms: _511  and  _512
REMARK                            x       y       z     vdW  Elec       q    Type
REMARK                         _______ _______ _______ _____ _____    ______ ____
ROOT
ATOM      1  CB  PHE A   1      11.826  13.089  10.501  0.00  0.00    +0.051 C 
ENDROOT
BRANCH   1   2
ATOM      2  CG  PHE A   1      12.697  13.912  11.422  0.00  0.00    -0.020 A 
ATOM      3  CD2 PHE A   1      13.526  13.299  12.353  0.00  0.00    -0.004 A 
ATOM      4  CE2 PHE A   1      14.307  14.080  13.253  0.00  0.00    -0.000 A 
ATOM      5  CZ  PHE A   1      14.244  15.440  13.207  0.00  0.00    -0.000 A 
ATOM      6  CE1 PHE A   1      13.419  16.061  12.244  0.00  0.00    -0.000 A 
ATOM      7  CD1 PHE A   1      12.660  15.302  11.382  0.00  0.00    -0.004 A 
ENDBRANCH   1   2
BRANCH   1   8
ATOM      8  CA  PHE A   1      12.244  13.134   9.026  0.00  0.00    +0.137 C 
BRANCH   8   9
ATOM      9  N   PHE A   1      11.193  12.564   8.196  0.00  0.00    -0.239 NA
ATOM     10  H   PHE A   1      10.347  12.153   8.640  0.00  0.00    +0.142 HD
ENDBRANCH   8   9
BRANCH   8  11
ATOM     11  C   PHE A   1      13.574  12.407   8.792  0.00  0.00    +0.224 C 
ATOM     12  O   PHE A   1      14.596  13.047   8.691  0.00  0.00    -0.287 OA
ENDBRANCH   8  11
ENDBRANCH   1   8
TORSDOF 4
REMARK  Name = ../refined-set-2016/2gh9/2gh9_pocket.pdb
REMARK  189 active torsions:
REMARK  status: ('A' for Active; 'I' for Inactive)
REMARK    1  A    between atoms: _1  and  _3
REMARK    2  A    between atoms: _3  and  _4
REMARK    3  A    between atoms: _3  and  _6
REMARK    4  A    between atoms: _6  and  _7
REMARK    5  A    between atoms: _10  and  _12
REMARK    6  A    between atoms: _12  and  _13
REMARK    7  A    between atoms: _12  and  _15
REMARK    8  A    between atoms: _15  and  _16
REMARK    9  A    between atoms: _21  and  _23
REMARK   10  A    between atoms: _23  and  _24
REMARK   11  A    between atoms: _23  and  _26
REMARK   12  A    between atoms: _26  and  _27
REMARK   13  A    between atoms: _33  and  _35
REMARK   14  A    between atoms: _35  and  _36
REMARK   15  A    between atoms: _38  and  _40
REMARK   16  A    between atoms: _40  and  _41
REMARK   17  A    between atoms: _40  and  _43
REMARK   18  A    between atoms: _43  and  _44
REMARK   19  A    between atoms: _44  and  _45
REMARK   20  A    between atoms: _48  and  _50
REMARK   21  A    between atoms: _50  and  _51
REMARK   22  A    between atoms: _50  and  _53
REMARK   23  A    between atoms: _57  and  _58
REMARK   24  A    between atoms: _63  and  _65
REMARK   25  A    between atoms: _65  and  _66
REMARK   26  A    between atoms: _65  and  _68
REMARK   27  A    between atoms: _68  and  _69
REMARK   28  A    between atoms: _75  and  _77
REMARK   29  A    between atoms: _77  and  _78
REMARK   30  A    between atoms: _81  and  _83
REMARK   31  A    between atoms: _83  and  _84
REMARK   32  A    between atoms: _83  and  _86
REMARK   33  A    between atoms: _86  and  _87
REMARK   34  A    between atoms: _87  and  _88
REMARK   35  A    between atoms: _91  and  _93
REMARK   36  A    between atoms: _93  and  _94
REMARK   37  A    between atoms: _93  and  _96
REMARK   38  A    between atoms: _96  and  _97
REMARK   39  A    between atoms: _100  and  _102
REMARK   40  A    between atoms: _102  and  _103
REMARK   41  A    between atoms: _102  and  _105
REMARK   42  A    between atoms: _105  and  _106
REMARK   43  A    between atoms: _106  and  _107
REMARK   44  A    between atoms: _107  and  _108
REMARK   45  A    between atoms: _108  and  _109
REMARK   46  A    between atoms: _113  and  _115
REMARK   47  A    between atoms: _115  and  _116
REMARK   48  A    between atoms: _115  and  _118
REMARK   49  A    between atoms: _118  and  _119
REMARK   50  A    between atoms: _122  and  _124
REMARK   51  A    between atoms: _124  and  _125
REMARK   52  A    between atoms: _124  and  _127
REMARK   53  A    between atoms: _131  and  _132
REMARK   54  A    between atoms: _137  and  _139
REMARK   55  A    between atoms: _139  and  _140
REMARK   56  A    between atoms: _139  and  _142
REMARK   57  A    between atoms: _142  and  _143
REMARK   58  A    between atoms: _148  and  _150
REMARK   59  A    between atoms: _150  and  _151
REMARK   60  A    between atoms: _150  and  _153
REMARK   61  A    between atoms: _153  and  _154
REMARK   62  A    between atoms: _157  and  _159
REMARK   63  A    between atoms: _159  and  _160
REMARK   64  A    between atoms: _159  and  _162
REMARK   65  A    between atoms: _162  and  _163
REMARK   66  A    between atoms: _173  and  _175
REMARK   67  A    between atoms: _175  and  _176
REMARK   68  A    between atoms: _175  and  _178
REMARK   69  A    between atoms: _181  and  _183
REMARK   70  A    between atoms: _183  and  _184
REMARK   71  A    between atoms: _183  and  _186
REMARK   72  A    between atoms: _186  and  _187
REMARK   73  A    between atoms: _187  and  _188
REMARK   74  A    between atoms: _191  and  _193
REMARK   75  A    between atoms: _193  and  _194
REMARK   76  A    between atoms: _193  and  _196
REMARK   77  A    between atoms: _196  and  _197
REMARK   78  A    between atoms: _197  and  _198
REMARK   79  A    between atoms: _201  and  _203
REMARK   80  A    between atoms: _203  and  _204
REMARK   81  A    between atoms: _203  and  _206
REMARK   82  A    between atoms: _206  and  _207
REMARK   83  A    between atoms: _209  and  _211
REMARK   84  A    between atoms: _211  and  _212
REMARK   85  A    between atoms: _211  and  _214
REMARK   86  A    between atoms: _217  and  _219
REMARK   87  A    between atoms: _219  and  _220
REMARK   88  A    between atoms: _219  and  _222
REMARK   89  A    between atoms: _222  and  _223
REMARK   90  A    between atoms: _228  and  _230
REMARK   91  A    between atoms: _230  and  _231
REMARK   92  A    between atoms: _233  and  _235
REMARK   93  A    between atoms: _235  and  _236
REMARK   94  A    between atoms: _235  and  _238
REMARK   95  A    between atoms: _238  and  _239
REMARK   96  A    between atoms: _243  and  _244
REMARK   97  A    between atoms: _249  and  _251
REMARK   98  A    between atoms: _251  and  _252
REMARK   99  A    between atoms: _251  and  _254
REMARK  100  A    between atoms: _254  and  _255
REMARK  101  A    between atoms: _260  and  _261
REMARK  102  A    between atoms: _263  and  _265
REMARK  103  A    between atoms: _265  and  _266
REMARK  104  A    between atoms: _265  and  _268
REMARK  105  A    between atoms: _268  and  _269
REMARK  106  A    between atoms: _275  and  _277
REMARK  107  A    between atoms: _277  and  _278
REMARK  108  A    between atoms: _277  and  _280
REMARK  109  A    between atoms: _280  and  _281
REMARK  110  A    between atoms: _286  and  _288
REMARK  111  A    between atoms: _288  and  _289
REMARK  112  A    between atoms: _288  and  _291
REMARK  113  A    between atoms: _291  and  _292
REMARK  114  A    between atoms: _297  and  _298
REMARK  115  A    between atoms: _300  and  _302
REMARK  116  A    between atoms: _302  and  _303
REMARK  117  A    between atoms: _305  and  _307
REMARK  118  A    between atoms: _307  and  _308
REMARK  119  A    between atoms: _307  and  _310
REMARK  120  A    between atoms: _310  and  _311
REMARK  121  A    between atoms: _314  and  _316
REMARK  122  A    between atoms: _316  and  _317
REMARK  123  A    between atoms: _316  and  _319
REMARK  124  A    between atoms: _319  and  _320
REMARK  125  A    between atoms: _325  and  _327
REMARK  126  A    between atoms: _327  and  _328
REMARK  127  A    between atoms: _331  and  _332
REMARK  128  A    between atoms: _337  and  _339
REMARK  129  A    between atoms: _339  and  _340
REMARK  130  A    between atoms: _339  and  _342
REMARK  131  A    between atoms: _342  and  _343
REMARK  132  A    between atoms: _353  and  _355
REMARK  133  A    between atoms: _355  and  _356
REMARK  134  A    between atoms: _359  and  _361
REMARK  135  A    between atoms: _361  and  _362
REMARK  136  A    between atoms: _361  and  _364
REMARK  137  A    between atoms: _364  and  _365
REMARK  138  A    between atoms: _371  and  _373
REMARK  139  A    between atoms: _373  and  _374
REMARK  140  A    between atoms: _373  and  _376
REMARK  141  A    between atoms: _376  and  _377
REMARK  142  A    between atoms: _380  and  _382
REMARK  143  A    between atoms: _382  and  _383
REMARK  144  A    between atoms: _385  and  _387
REMARK  145  A    between atoms: _387  and  _388
REMARK  146  A    between atoms: _387  and  _390
REMARK  147  A    between atoms: _393  and  _395
REMARK  148  A    between atoms: _395  and  _396
REMARK  149  A    between atoms: _395  and  _398
REMARK  150  A    between atoms: _398  and  _399
REMARK  151  A    between atoms: _399  and  _400
REMARK  152  A    between atoms: _405  and  _407
REMARK  153  A    between atoms: _407  and  _408
REMARK  154  A    between atoms: _407  and  _410
REMARK  155  A    between atoms: _410  and  _411
REMARK  156  A    between atoms: _417  and  _419
REMARK  157  A    between atoms: _419  and  _420
REMARK  158  A    between atoms: _419  and  _422
REMARK  159  A    between atoms: _422  and  _423
REMARK  160  A    between atoms: _423  and  _424
REMARK  161  A    between atoms: _424  and  _425
REMARK  162  A    between atoms: _434  and  _436
REMARK  163  A    between atoms: _436  and  _437
REMARK  164  A    between atoms: _436  and  _439
REMARK  165  A    between atoms: _439  and  _440
REMARK  166  A    between atoms: _440  and  _441
REMARK  167  A    between atoms: _444  and  _445
REMARK  168  A    between atoms: _450  and  _452
REMARK  169  A    between atoms: _452  and  _453
REMARK  170  A    between atoms: _452  and  _455
REMARK  171  A    between atoms: _455  and  _456
REMARK  172  A    between atoms: _456  and  _457
REMARK  173  A    between atoms: _459  and  _461
REMARK  174  A    between atoms: _461  and  _462
REMARK  175  A    between atoms: _464  and  _466
REMARK  176  A    between atoms: _466  and  _467
REMARK  177  A    between atoms: _466  and  _469
REMARK  178  A    between atoms: _472  and  _474
REMARK  179  A    between atoms: _474  and  _475
REMARK  180  A    between atoms: _474  and  _477
REMARK  181  A    between atoms: _477  and  _478
REMARK  182  A    between atoms: _488  and  _490
REMARK  183  A    between atoms: _490  and  _491
REMARK  184  A    between atoms: _493  and  _495
REMARK  185  A    between atoms: _495  and  _496
REMARK  186  A    between atoms: _495  and  _498
REMARK  187  A    between atoms: _498  and  _499
REMARK  188  A    between atoms: _509  and  _511
REMARK  189  A    between atoms: _511  and  _512
REMARK                            x       y       z     vdW  Elec       q    Type
REMARK                         _______ _______ _______ _____ _____    ______ ____
ROOT
ATOM      1  NE  ARG A   1      17.735  14.201  15.288  0.00  0.00    -0.265 N 
ATOM      2  CZ  ARG A   1      18.162  14.943  16.296  0.00  0.00    +0.342 C 
ATOM      3  NH2 ARG A   1      18.351  14.423  17.512  0.00  0.00    -0.292 N 
ATOM      4 HH21 ARG A   1      18.687  15.027  18.289  0.00  0.00    +0.255 HD
ATOM      5 HH22 ARG A   1      18.162  13.415  17.681  0.00  0.00    +0.255 HD
ATOM      6  NH1 ARG A   1      18.399  16.222  16.101  0.00  0.00    -0.292 N 
ATOM      7 HH11 ARG A   1      18.735  16.814  16.887  0.00  0.00    +0.255 HD
ATOM      8 HH12 ARG A   1      18.250  16.641  15.161  0.00  0.00    +0.255 HD
ATOM      9  HE  ARG A   1      17.624  14.661  14.362  0.00  0.00    +0.259 HD
ENDROOT
BRANCH   1  10
ATOM     10  CD  ARG A   1      17.408  12.781  15.384  0.00  0.00    +0.174 C 
BRANCH  10  11
ATOM     11  CG  ARG A   1      17.940  11.998  14.266  0.00  0.00    +0.045 C 
BRANCH  11  12
ATOM     12  CB  ARG A   1      17.059  10.791  13.993  0.00  0.00    +0.029 C 
BRANCH  12  13
ATOM     13  CA  ARG A   1      17.636   9.839  12.934  0.00  0.00    +0.133 C 
BRANCH  13  14
ATOM     14  N   ARG A   1      17.955  10.544  11.685  0.00  0.00    -0.239 NA
ATOM     15  H   ARG A   1      17.626  11.521  11.547  0.00  0.00    +0.142 HD
ENDBRANCH  13  14
BRANCH  13  16
ATOM     16  C   ARG A   1      16.644   8.709  12.636  0.00  0.00    +0.224 C 
ATOM     17  O   ARG A   1      15.843   8.804  11.710  0.00  0.00    -0.287 OA
ENDBRANCH  13  16
ENDBRANCH  12  13
ENDBRANCH  11  12
ENDBRANCH  10  11
ENDBRANCH   1  10
TORSDOF 6
REMARK  Name = ../refined-set-2016/2gh9/2gh9_pocket.pdb
REMARK  189 active torsions:
REMARK  status: ('A' for Active; 'I' for Inactive)
REMARK    1  A    between atoms: _1  and  _3
REMARK    2  A    between atoms: _3  and  _4
REMARK    3  A    between atoms: _3  and  _6
REMARK    4  A    between atoms: _6  and  _7
REMARK    5  A    between atoms: _10  and  _12
REMARK    6  A    between atoms: _12  and  _13
REMARK    7  A    between atoms: _12  and  _15
REMARK    8  A    between atoms: _15  and  _16
REMARK    9  A    between atoms: _21  and  _23
REMARK   10  A    between atoms: _23  and  _24
REMARK   11  A    between atoms: _23  and  _26
REMARK   12  A    between atoms: _26  and  _27
REMARK   13  A    between atoms: _33  and  _35
REMARK   14  A    between atoms: _35  and  _36
REMARK   15  A    between atoms: _38  and  _40
REMARK   16  A    between atoms: _40  and  _41
REMARK   17  A    between atoms: _40  and  _43
REMARK   18  A    between atoms: _43  and  _44
REMARK   19  A    between atoms: _44  and  _45
REMARK   20  A    between atoms: _48  and  _50
REMARK   21  A    between atoms: _50  and  _51
REMARK   22  A    between atoms: _50  and  _53
REMARK   23  A    between atoms: _57  and  _58
REMARK   24  A    between atoms: _63  and  _65
REMARK   25  A    between atoms: _65  and  _66
REMARK   26  A    between atoms: _65  and  _68
REMARK   27  A    between atoms: _68  and  _69
REMARK   28  A    between atoms: _75  and  _77
REMARK   29  A    between atoms: _77  and  _78
REMARK   30  A    between atoms: _81  and  _83
REMARK   31  A    between atoms: _83  and  _84
REMARK   32  A    between atoms: _83  and  _86
REMARK   33  A    between atoms: _86  and  _87
REMARK   34  A    between atoms: _87  and  _88
REMARK   35  A    between atoms: _91  and  _93
REMARK   36  A    between atoms: _93  and  _94
REMARK   37  A    between atoms: _93  and  _96
REMARK   38  A    between atoms: _96  and  _97
REMARK   39  A    between atoms: _100  and  _102
REMARK   40  A    between atoms: _102  and  _103
REMARK   41  A    between atoms: _102  and  _105
REMARK   42  A    between atoms: _105  and  _106
REMARK   43  A    between atoms: _106  and  _107
REMARK   44  A    between atoms: _107  and  _108
REMARK   45  A    between atoms: _108  and  _109
REMARK   46  A    between atoms: _113  and  _115
REMARK   47  A    between atoms: _115  and  _116
REMARK   48  A    between atoms: _115  and  _118
REMARK   49  A    between atoms: _118  and  _119
REMARK   50  A    between atoms: _122  and  _124
REMARK   51  A    between atoms: _124  and  _125
REMARK   52  A    between atoms: _124  and  _127
REMARK   53  A    between atoms: _131  and  _132
REMARK   54  A    between atoms: _137  and  _139
REMARK   55  A    between atoms: _139  and  _140
REMARK   56  A    between atoms: _139  and  _142
REMARK   57  A    between atoms: _142  and  _143
REMARK   58  A    between atoms: _148  and  _150
REMARK   59  A    between atoms: _150  and  _151
REMARK   60  A    between atoms: _150  and  _153
REMARK   61  A    between atoms: _153  and  _154
REMARK   62  A    between atoms: _157  and  _159
REMARK   63  A    between atoms: _159  and  _160
REMARK   64  A    between atoms: _159  and  _162
REMARK   65  A    between atoms: _162  and  _163
REMARK   66  A    between atoms: _173  and  _175
REMARK   67  A    between atoms: _175  and  _176
REMARK   68  A    between atoms: _175  and  _178
REMARK   69  A    between atoms: _181  and  _183
REMARK   70  A    between atoms: _183  and  _184
REMARK   71  A    between atoms: _183  and  _186
REMARK   72  A    between atoms: _186  and  _187
REMARK   73  A    between atoms: _187  and  _188
REMARK   74  A    between atoms: _191  and  _193
REMARK   75  A    between atoms: _193  and  _194
REMARK   76  A    between atoms: _193  and  _196
REMARK   77  A    between atoms: _196  and  _197
REMARK   78  A    between atoms: _197  and  _198
REMARK   79  A    between atoms: _201  and  _203
REMARK   80  A    between atoms: _203  and  _204
REMARK   81  A    between atoms: _203  and  _206
REMARK   82  A    between atoms: _206  and  _207
REMARK   83  A    between atoms: _209  and  _211
REMARK   84  A    between atoms: _211  and  _212
REMARK   85  A    between atoms: _211  and  _214
REMARK   86  A    between atoms: _217  and  _219
REMARK   87  A    between atoms: _219  and  _220
REMARK   88  A    between atoms: _219  and  _222
REMARK   89  A    between atoms: _222  and  _223
REMARK   90  A    between atoms: _228  and  _230
REMARK   91  A    between atoms: _230  and  _231
REMARK   92  A    between atoms: _233  and  _235
REMARK   93  A    between atoms: _235  and  _236
REMARK   94  A    between atoms: _235  and  _238
REMARK   95  A    between atoms: _238  and  _239
REMARK   96  A    between atoms: _243  and  _244
REMARK   97  A    between atoms: _249  and  _251
REMARK   98  A    between atoms: _251  and  _252
REMARK   99  A    between atoms: _251  and  _254
REMARK  100  A    between atoms: _254  and  _255
REMARK  101  A    between atoms: _260  and  _261
REMARK  102  A    between atoms: _263  and  _265
REMARK  103  A    between atoms: _265  and  _266
REMARK  104  A    between atoms: _265  and  _268
REMARK  105  A    between atoms: _268  and  _269
REMARK  106  A    between atoms: _275  and  _277
REMARK  107  A    between atoms: _277  and  _278
REMARK  108  A    between atoms: _277  and  _280
REMARK  109  A    between atoms: _280  and  _281
REMARK  110  A    between atoms: _286  and  _288
REMARK  111  A    between atoms: _288  and  _289
REMARK  112  A    between atoms: _288  and  _291
REMARK  113  A    between atoms: _291  and  _292
REMARK  114  A    between atoms: _297  and  _298
REMARK  115  A    between atoms: _300  and  _302
REMARK  116  A    between atoms: _302  and  _303
REMARK  117  A    between atoms: _305  and  _307
REMARK  118  A    between atoms: _307  and  _308
REMARK  119  A    between atoms: _307  and  _310
REMARK  120  A    between atoms: _310  and  _311
REMARK  121  A    between atoms: _314  and  _316
REMARK  122  A    between atoms: _316  and  _317
REMARK  123  A    between atoms: _316  and  _319
REMARK  124  A    between atoms: _319  and  _320
REMARK  125  A    between atoms: _325  and  _327
REMARK  126  A    between atoms: _327  and  _328
REMARK  127  A    between atoms: _331  and  _332
REMARK  128  A    between atoms: _337  and  _339
REMARK  129  A    between atoms: _339  and  _340
REMARK  130  A    between atoms: _339  and  _342
REMARK  131  A    between atoms: _342  and  _343
REMARK  132  A    between atoms: _353  and  _355
REMARK  133  A    between atoms: _355  and  _356
REMARK  134  A    between atoms: _359  and  _361
REMARK  135  A    between atoms: _361  and  _362
REMARK  136  A    between atoms: _361  and  _364
REMARK  137  A    between atoms: _364  and  _365
REMARK  138  A    between atoms: _371  and  _373
REMARK  139  A    between atoms: _373  and  _374
REMARK  140  A    between atoms: _373  and  _376
REMARK  141  A    between atoms: _376  and  _377
REMARK  142  A    between atoms: _380  and  _382
REMARK  143  A    between atoms: _382  and  _383
REMARK  144  A    between atoms: _385  and  _387
REMARK  145  A    between atoms: _387  and  _388
REMARK  146  A    between atoms: _387  and  _390
REMARK  147  A    between atoms: _393  and  _395
REMARK  148  A    between atoms: _395  and  _396
REMARK  149  A    between atoms: _395  and  _398
REMARK  150  A    between atoms: _398  and  _399
REMARK  151  A    between atoms: _399  and  _400
REMARK  152  A    between atoms: _405  and  _407
REMARK  153  A    between atoms: _407  and  _408
REMARK  154  A    between atoms: _407  and  _410
REMARK  155  A    between atoms: _410  and  _411
REMARK  156  A    between atoms: _417  and  _419
REMARK  157  A    between atoms: _419  and  _420
REMARK  158  A    between atoms: _419  and  _422
REMARK  159  A    between atoms: _422  and  _423
REMARK  160  A    between atoms: _423  and  _424
REMARK  161  A    between atoms: _424  and  _425
REMARK  162  A    between atoms: _434  and  _436
REMARK  163  A    between atoms: _436  and  _437
REMARK  164  A    between atoms: _436  and  _439
REMARK  165  A    between atoms: _439  and  _440
REMARK  166  A    between atoms: _440  and  _441
REMARK  167  A    between atoms: _444  and  _445
REMARK  168  A    between atoms: _450  and  _452
REMARK  169  A    between atoms: _452  and  _453
REMARK  170  A    between atoms: _452  and  _455
REMARK  171  A    between atoms: _455  and  _456
REMARK  172  A    between atoms: _456  and  _457
REMARK  173  A    between atoms: _459  and  _461
REMARK  174  A    between atoms: _461  and  _462
REMARK  175  A    between atoms: _464  and  _466
REMARK  176  A    between atoms: _466  and  _467
REMARK  177  A    between atoms: _466  and  _469
REMARK  178  A    between atoms: _472  and  _474
REMARK  179  A    between atoms: _474  and  _475
REMARK  180  A    between atoms: _474  and  _477
REMARK  181  A    between atoms: _477  and  _478
REMARK  182  A    between atoms: _488  and  _490
REMARK  183  A    between atoms: _490  and  _491
REMARK  184  A    between atoms: _493  and  _495
REMARK  185  A    between atoms: _495  and  _496
REMARK  186  A    between atoms: _495  and  _498
REMARK  187  A    between atoms: _498  and  _499
REMARK  188  A    between atoms: _509  and  _511
REMARK  189  A    between atoms: _511  and  _512
REMARK                            x       y       z     vdW  Elec       q    Type
REMARK                         _______ _______ _______ _____ _____    ______ ____
ROOT
ATOM      1  C   MET A   1      20.044   5.887  29.617  0.00  0.00    +0.241 C 
ATOM      2  N   PRO A   2      20.455   6.086  30.888  0.00  0.00    -0.273 N 
ATOM      3  CA  PRO A   2      19.475   6.045  31.949  0.00  0.00    +0.140 C 
ATOM      4  CB  PRO A   2      20.315   6.166  33.233  0.00  0.00    +0.030 C 
ATOM      5  CG  PRO A   2      21.712   5.919  32.841  0.00  0.00    +0.024 C 
ATOM      6  CD  PRO A   2      21.794   6.396  31.402  0.00  0.00    +0.094 C 
ATOM      7  O   MET A   1      18.902   5.496  29.337  0.00  0.00    -0.273 OA
ENDROOT
BRANCH   3   8
ATOM      8  C   PRO A   2      18.553   7.254  31.846  0.00  0.00    +0.227 C 
ATOM      9  O   PRO A   2      19.004   8.356  31.456  0.00  0.00    -0.286 OA
ENDBRANCH   3   8
BRANCH   1  10
ATOM     10  CA  MET A   1      21.055   6.205  28.500  0.00  0.00    +0.146 C 
BRANCH  10  11
ATOM     11  N   MET A   1      20.870   5.304  27.389  0.00  0.00    -0.238 NA
ATOM     12  H   MET A   1      20.768   5.692  26.429  0.00  0.00    +0.142 HD
ENDBRANCH  10  11
BRANCH  10  13
ATOM     13  CB  MET A   1      20.858   7.653  28.060  0.00  0.00    +0.038 C 
BRANCH  13  14
ATOM     14  CG  MET A   1      22.021   8.203  27.303  0.00  0.00    +0.060 C 
BRANCH  14  15
ATOM     15  SD  MET A   1      21.854   9.914  26.960  0.00  0.00    -0.139 S 
ATOM     16  CE  MET A   1      20.532   9.933  25.729  0.00  0.00    +0.069 C 
ENDBRANCH  14  15
ENDBRANCH  13  14
ENDBRANCH  10  13
ENDBRANCH   1  10
TORSDOF 6
REMARK  Name = ../refined-set-2016/2gh9/2gh9_pocket.pdb
REMARK  189 active torsions:
REMARK  status: ('A' for Active; 'I' for Inactive)
REMARK    1  A    between atoms: _1  and  _3
REMARK    2  A    between atoms: _3  and  _4
REMARK    3  A    between atoms: _3  and  _6
REMARK    4  A    between atoms: _6  and  _7
REMARK    5  A    between atoms: _10  and  _12
REMARK    6  A    between atoms: _12  and  _13
REMARK    7  A    between atoms: _12  and  _15
REMARK    8  A    between atoms: _15  and  _16
REMARK    9  A    between atoms: _21  and  _23
REMARK   10  A    between atoms: _23  and  _24
REMARK   11  A    between atoms: _23  and  _26
REMARK   12  A    between atoms: _26  and  _27
REMARK   13  A    between atoms: _33  and  _35
REMARK   14  A    between atoms: _35  and  _36
REMARK   15  A    between atoms: _38  and  _40
REMARK   16  A    between atoms: _40  and  _41
REMARK   17  A    between atoms: _40  and  _43
REMARK   18  A    between atoms: _43  and  _44
REMARK   19  A    between atoms: _44  and  _45
REMARK   20  A    between atoms: _48  and  _50
REMARK   21  A    between atoms: _50  and  _51
REMARK   22  A    between atoms: _50  and  _53
REMARK   23  A    between atoms: _57  and  _58
REMARK   24  A    between atoms: _63  and  _65
REMARK   25  A    between atoms: _65  and  _66
REMARK   26  A    between atoms: _65  and  _68
REMARK   27  A    between atoms: _68  and  _69
REMARK   28  A    between atoms: _75  and  _77
REMARK   29  A    between atoms: _77  and  _78
REMARK   30  A    between atoms: _81  and  _83
REMARK   31  A    between atoms: _83  and  _84
REMARK   32  A    between atoms: _83  and  _86
REMARK   33  A    between atoms: _86  and  _87
REMARK   34  A    between atoms: _87  and  _88
REMARK   35  A    between atoms: _91  and  _93
REMARK   36  A    between atoms: _93  and  _94
REMARK   37  A    between atoms: _93  and  _96
REMARK   38  A    between atoms: _96  and  _97
REMARK   39  A    between atoms: _100  and  _102
REMARK   40  A    between atoms: _102  and  _103
REMARK   41  A    between atoms: _102  and  _105
REMARK   42  A    between atoms: _105  and  _106
REMARK   43  A    between atoms: _106  and  _107
REMARK   44  A    between atoms: _107  and  _108
REMARK   45  A    between atoms: _108  and  _109
REMARK   46  A    between atoms: _113  and  _115
REMARK   47  A    between atoms: _115  and  _116
REMARK   48  A    between atoms: _115  and  _118
REMARK   49  A    between atoms: _118  and  _119
REMARK   50  A    between atoms: _122  and  _124
REMARK   51  A    between atoms: _124  and  _125
REMARK   52  A    between atoms: _124  and  _127
REMARK   53  A    between atoms: _131  and  _132
REMARK   54  A    between atoms: _137  and  _139
REMARK   55  A    between atoms: _139  and  _140
REMARK   56  A    between atoms: _139  and  _142
REMARK   57  A    between atoms: _142  and  _143
REMARK   58  A    between atoms: _148  and  _150
REMARK   59  A    between atoms: _150  and  _151
REMARK   60  A    between atoms: _150  and  _153
REMARK   61  A    between atoms: _153  and  _154
REMARK   62  A    between atoms: _157  and  _159
REMARK   63  A    between atoms: _159  and  _160
REMARK   64  A    between atoms: _159  and  _162
REMARK   65  A    between atoms: _162  and  _163
REMARK   66  A    between atoms: _173  and  _175
REMARK   67  A    between atoms: _175  and  _176
REMARK   68  A    between atoms: _175  and  _178
REMARK   69  A    between atoms: _181  and  _183
REMARK   70  A    between atoms: _183  and  _184
REMARK   71  A    between atoms: _183  and  _186
REMARK   72  A    between atoms: _186  and  _187
REMARK   73  A    between atoms: _187  and  _188
REMARK   74  A    between atoms: _191  and  _193
REMARK   75  A    between atoms: _193  and  _194
REMARK   76  A    between atoms: _193  and  _196
REMARK   77  A    between atoms: _196  and  _197
REMARK   78  A    between atoms: _197  and  _198
REMARK   79  A    between atoms: _201  and  _203
REMARK   80  A    between atoms: _203  and  _204
REMARK   81  A    between atoms: _203  and  _206
REMARK   82  A    between atoms: _206  and  _207
REMARK   83  A    between atoms: _209  and  _211
REMARK   84  A    between atoms: _211  and  _212
REMARK   85  A    between atoms: _211  and  _214
REMARK   86  A    between atoms: _217  and  _219
REMARK   87  A    between atoms: _219  and  _220
REMARK   88  A    between atoms: _219  and  _222
REMARK   89  A    between atoms: _222  and  _223
REMARK   90  A    between atoms: _228  and  _230
REMARK   91  A    between atoms: _230  and  _231
REMARK   92  A    between atoms: _233  and  _235
REMARK   93  A    between atoms: _235  and  _236
REMARK   94  A    between atoms: _235  and  _238
REMARK   95  A    between atoms: _238  and  _239
REMARK   96  A    between atoms: _243  and  _244
REMARK   97  A    between atoms: _249  and  _251
REMARK   98  A    between atoms: _251  and  _252
REMARK   99  A    between atoms: _251  and  _254
REMARK  100  A    between atoms: _254  and  _255
REMARK  101  A    between atoms: _260  and  _261
REMARK  102  A    between atoms: _263  and  _265
REMARK  103  A    between atoms: _265  and  _266
REMARK  104  A    between atoms: _265  and  _268
REMARK  105  A    between atoms: _268  and  _269
REMARK  106  A    between atoms: _275  and  _277
REMARK  107  A    between atoms: _277  and  _278
REMARK  108  A    between atoms: _277  and  _280
REMARK  109  A    between atoms: _280  and  _281
REMARK  110  A    between atoms: _286  and  _288
REMARK  111  A    between atoms: _288  and  _289
REMARK  112  A    between atoms: _288  and  _291
REMARK  113  A    between atoms: _291  and  _292
REMARK  114  A    between atoms: _297  and  _298
REMARK  115  A    between atoms: _300  and  _302
REMARK  116  A    between atoms: _302  and  _303
REMARK  117  A    between atoms: _305  and  _307
REMARK  118  A    between atoms: _307  and  _308
REMARK  119  A    between atoms: _307  and  _310
REMARK  120  A    between atoms: _310  and  _311
REMARK  121  A    between atoms: _314  and  _316
REMARK  122  A    between atoms: _316  and  _317
REMARK  123  A    between atoms: _316  and  _319
REMARK  124  A    between atoms: _319  and  _320
REMARK  125  A    between atoms: _325  and  _327
REMARK  126  A    between atoms: _327  and  _328
REMARK  127  A    between atoms: _331  and  _332
REMARK  128  A    between atoms: _337  and  _339
REMARK  129  A    between atoms: _339  and  _340
REMARK  130  A    between atoms: _339  and  _342
REMARK  131  A    between atoms: _342  and  _343
REMARK  132  A    between atoms: _353  and  _355
REMARK  133  A    between atoms: _355  and  _356
REMARK  134  A    between atoms: _359  and  _361
REMARK  135  A    between atoms: _361  and  _362
REMARK  136  A    between atoms: _361  and  _364
REMARK  137  A    between atoms: _364  and  _365
REMARK  138  A    between atoms: _371  and  _373
REMARK  139  A    between atoms: _373  and  _374
REMARK  140  A    between atoms: _373  and  _376
REMARK  141  A    between atoms: _376  and  _377
REMARK  142  A    between atoms: _380  and  _382
REMARK  143  A    between atoms: _382  and  _383
REMARK  144  A    between atoms: _385  and  _387
REMARK  145  A    between atoms: _387  and  _388
REMARK  146  A    between atoms: _387  and  _390
REMARK  147  A    between atoms: _393  and  _395
REMARK  148  A    between atoms: _395  and  _396
REMARK  149  A    between atoms: _395  and  _398
REMARK  150  A    between atoms: _398  and  _399
REMARK  151  A    between atoms: _399  and  _400
REMARK  152  A    between atoms: _405  and  _407
REMARK  153  A    between atoms: _407  and  _408
REMARK  154  A    between atoms: _407  and  _410
REMARK  155  A    between atoms: _410  and  _411
REMARK  156  A    between atoms: _417  and  _419
REMARK  157  A    between atoms: _419  and  _420
REMARK  158  A    between atoms: _419  and  _422
REMARK  159  A    between atoms: _422  and  _423
REMARK  160  A    between atoms: _423  and  _424
REMARK  161  A    between atoms: _424  and  _425
REMARK  162  A    between atoms: _434  and  _436
REMARK  163  A    between atoms: _436  and  _437
REMARK  164  A    between atoms: _436  and  _439
REMARK  165  A    between atoms: _439  and  _440
REMARK  166  A    between atoms: _440  and  _441
REMARK  167  A    between atoms: _444  and  _445
REMARK  168  A    between atoms: _450  and  _452
REMARK  169  A    between atoms: _452  and  _453
REMARK  170  A    between atoms: _452  and  _455
REMARK  171  A    between atoms: _455  and  _456
REMARK  172  A    between atoms: _456  and  _457
REMARK  173  A    between atoms: _459  and  _461
REMARK  174  A    between atoms: _461  and  _462
REMARK  175  A    between atoms: _464  and  _466
REMARK  176  A    between atoms: _466  and  _467
REMARK  177  A    between atoms: _466  and  _469
REMARK  178  A    between atoms: _472  and  _474
REMARK  179  A    between atoms: _474  and  _475
REMARK  180  A    between atoms: _474  and  _477
REMARK  181  A    between atoms: _477  and  _478
REMARK  182  A    between atoms: _488  and  _490
REMARK  183  A    between atoms: _490  and  _491
REMARK  184  A    between atoms: _493  and  _495
REMARK  185  A    between atoms: _495  and  _496
REMARK  186  A    between atoms: _495  and  _498
REMARK  187  A    between atoms: _498  and  _499
REMARK  188  A    between atoms: _509  and  _511
REMARK  189  A    between atoms: _511  and  _512
REMARK                            x       y       z     vdW  Elec       q    Type
REMARK                         _______ _______ _______ _____ _____    ______ ____
ROOT
ATOM      1  CA  MET A   1      21.507  11.226  35.352  0.00  0.00    +0.146 C 
ENDROOT
BRANCH   1   2
ATOM      2  C   MET A   1      21.894  12.702  35.129  0.00  0.00    +0.238 C 
ATOM      3  N   GLY A   2      20.979  13.631  35.409  0.00  0.00    -0.297 N 
ATOM      4  H   GLY A   2      20.037  13.328  35.729  0.00  0.00    +0.150 HD
ATOM      5  O   MET A   1      23.019  12.991  34.726  0.00  0.00    -0.274 OA
BRANCH   3   6
ATOM      6  CA  GLY A   2      21.257  15.070  35.280  0.00  0.00    +0.163 C 
BRANCH   6   7
ATOM      7  C   GLY A   2      22.450  15.566  36.101  0.00  0.00    +0.229 C 
ATOM      8  O   GLY A   2      23.139  16.519  35.711  0.00  0.00    -0.286 OA
ENDBRANCH   6   7
ENDBRANCH   3   6
ENDBRANCH   1   2
BRANCH   1   9
ATOM      9  N   MET A   1      20.693  11.054  36.562  0.00  0.00    -0.238 NA
ATOM     10  H   MET A   1      19.795  10.533  36.505  0.00  0.00    +0.142 HD
ENDBRANCH   1   9
BRANCH   1  11
ATOM     11  CB  MET A   1      20.767  10.652  34.122  0.00  0.00    +0.038 C 
BRANCH  11  12
ATOM     12  CG  MET A   1      21.665  10.282  32.971  0.00  0.00    +0.060 C 
BRANCH  12  13
ATOM     13  SD  MET A   1      23.106   9.278  33.400  0.00  0.00    -0.139 S 
ATOM     14  CE  MET A   1      24.451  10.405  33.034  0.00  0.00    +0.069 C 
ENDBRANCH  12  13
ENDBRANCH  11  12
ENDBRANCH   1  11
TORSDOF 7
REMARK  Name = ../refined-set-2016/2gh9/2gh9_pocket.pdb
REMARK  189 active torsions:
REMARK  status: ('A' for Active; 'I' for Inactive)
REMARK    1  A    between atoms: _1  and  _3
REMARK    2  A    between atoms: _3  and  _4
REMARK    3  A    between atoms: _3  and  _6
REMARK    4  A    between atoms: _6  and  _7
REMARK    5  A    between atoms: _10  and  _12
REMARK    6  A    between atoms: _12  and  _13
REMARK    7  A    between atoms: _12  and  _15
REMARK    8  A    between atoms: _15  and  _16
REMARK    9  A    between atoms: _21  and  _23
REMARK   10  A    between atoms: _23  and  _24
REMARK   11  A    between atoms: _23  and  _26
REMARK   12  A    between atoms: _26  and  _27
REMARK   13  A    between atoms: _33  and  _35
REMARK   14  A    between atoms: _35  and  _36
REMARK   15  A    between atoms: _38  and  _40
REMARK   16  A    between atoms: _40  and  _41
REMARK   17  A    between atoms: _40  and  _43
REMARK   18  A    between atoms: _43  and  _44
REMARK   19  A    between atoms: _44  and  _45
REMARK   20  A    between atoms: _48  and  _50
REMARK   21  A    between atoms: _50  and  _51
REMARK   22  A    between atoms: _50  and  _53
REMARK   23  A    between atoms: _57  and  _58
REMARK   24  A    between atoms: _63  and  _65
REMARK   25  A    between atoms: _65  and  _66
REMARK   26  A    between atoms: _65  and  _68
REMARK   27  A    between atoms: _68  and  _69
REMARK   28  A    between atoms: _75  and  _77
REMARK   29  A    between atoms: _77  and  _78
REMARK   30  A    between atoms: _81  and  _83
REMARK   31  A    between atoms: _83  and  _84
REMARK   32  A    between atoms: _83  and  _86
REMARK   33  A    between atoms: _86  and  _87
REMARK   34  A    between atoms: _87  and  _88
REMARK   35  A    between atoms: _91  and  _93
REMARK   36  A    between atoms: _93  and  _94
REMARK   37  A    between atoms: _93  and  _96
REMARK   38  A    between atoms: _96  and  _97
REMARK   39  A    between atoms: _100  and  _102
REMARK   40  A    between atoms: _102  and  _103
REMARK   41  A    between atoms: _102  and  _105
REMARK   42  A    between atoms: _105  and  _106
REMARK   43  A    between atoms: _106  and  _107
REMARK   44  A    between atoms: _107  and  _108
REMARK   45  A    between atoms: _108  and  _109
REMARK   46  A    between atoms: _113  and  _115
REMARK   47  A    between atoms: _115  and  _116
REMARK   48  A    between atoms: _115  and  _118
REMARK   49  A    between atoms: _118  and  _119
REMARK   50  A    between atoms: _122  and  _124
REMARK   51  A    between atoms: _124  and  _125
REMARK   52  A    between atoms: _124  and  _127
REMARK   53  A    between atoms: _131  and  _132
REMARK   54  A    between atoms: _137  and  _139
REMARK   55  A    between atoms: _139  and  _140
REMARK   56  A    between atoms: _139  and  _142
REMARK   57  A    between atoms: _142  and  _143
REMARK   58  A    between atoms: _148  and  _150
REMARK   59  A    between atoms: _150  and  _151
REMARK   60  A    between atoms: _150  and  _153
REMARK   61  A    between atoms: _153  and  _154
REMARK   62  A    between atoms: _157  and  _159
REMARK   63  A    between atoms: _159  and  _160
REMARK   64  A    between atoms: _159  and  _162
REMARK   65  A    between atoms: _162  and  _163
REMARK   66  A    between atoms: _173  and  _175
REMARK   67  A    between atoms: _175  and  _176
REMARK   68  A    between atoms: _175  and  _178
REMARK   69  A    between atoms: _181  and  _183
REMARK   70  A    between atoms: _183  and  _184
REMARK   71  A    between atoms: _183  and  _186
REMARK   72  A    between atoms: _186  and  _187
REMARK   73  A    between atoms: _187  and  _188
REMARK   74  A    between atoms: _191  and  _193
REMARK   75  A    between atoms: _193  and  _194
REMARK   76  A    between atoms: _193  and  _196
REMARK   77  A    between atoms: _196  and  _197
REMARK   78  A    between atoms: _197  and  _198
REMARK   79  A    between atoms: _201  and  _203
REMARK   80  A    between atoms: _203  and  _204
REMARK   81  A    between atoms: _203  and  _206
REMARK   82  A    between atoms: _206  and  _207
REMARK   83  A    between atoms: _209  and  _211
REMARK   84  A    between atoms: _211  and  _212
REMARK   85  A    between atoms: _211  and  _214
REMARK   86  A    between atoms: _217  and  _219
REMARK   87  A    between atoms: _219  and  _220
REMARK   88  A    between atoms: _219  and  _222
REMARK   89  A    between atoms: _222  and  _223
REMARK   90  A    between atoms: _228  and  _230
REMARK   91  A    between atoms: _230  and  _231
REMARK   92  A    between atoms: _233  and  _235
REMARK   93  A    between atoms: _235  and  _236
REMARK   94  A    between atoms: _235  and  _238
REMARK   95  A    between atoms: _238  and  _239
REMARK   96  A    between atoms: _243  and  _244
REMARK   97  A    between atoms: _249  and  _251
REMARK   98  A    between atoms: _251  and  _252
REMARK   99  A    between atoms: _251  and  _254
REMARK  100  A    between atoms: _254  and  _255
REMARK  101  A    between atoms: _260  and  _261
REMARK  102  A    between atoms: _263  and  _265
REMARK  103  A    between atoms: _265  and  _266
REMARK  104  A    between atoms: _265  and  _268
REMARK  105  A    between atoms: _268  and  _269
REMARK  106  A    between atoms: _275  and  _277
REMARK  107  A    between atoms: _277  and  _278
REMARK  108  A    between atoms: _277  and  _280
REMARK  109  A    between atoms: _280  and  _281
REMARK  110  A    between atoms: _286  and  _288
REMARK  111  A    between atoms: _288  and  _289
REMARK  112  A    between atoms: _288  and  _291
REMARK  113  A    between atoms: _291  and  _292
REMARK  114  A    between atoms: _297  and  _298
REMARK  115  A    between atoms: _300  and  _302
REMARK  116  A    between atoms: _302  and  _303
REMARK  117  A    between atoms: _305  and  _307
REMARK  118  A    between atoms: _307  and  _308
REMARK  119  A    between atoms: _307  and  _310
REMARK  120  A    between atoms: _310  and  _311
REMARK  121  A    between atoms: _314  and  _316
REMARK  122  A    between atoms: _316  and  _317
REMARK  123  A    between atoms: _316  and  _319
REMARK  124  A    between atoms: _319  and  _320
REMARK  125  A    between atoms: _325  and  _327
REMARK  126  A    between atoms: _327  and  _328
REMARK  127  A    between atoms: _331  and  _332
REMARK  128  A    between atoms: _337  and  _339
REMARK  129  A    between atoms: _339  and  _340
REMARK  130  A    between atoms: _339  and  _342
REMARK  131  A    between atoms: _342  and  _343
REMARK  132  A    between atoms: _353  and  _355
REMARK  133  A    between atoms: _355  and  _356
REMARK  134  A    between atoms: _359  and  _361
REMARK  135  A    between atoms: _361  and  _362
REMARK  136  A    between atoms: _361  and  _364
REMARK  137  A    between atoms: _364  and  _365
REMARK  138  A    between atoms: _371  and  _373
REMARK  139  A    between atoms: _373  and  _374
REMARK  140  A    between atoms: _373  and  _376
REMARK  141  A    between atoms: _376  and  _377
REMARK  142  A    between atoms: _380  and  _382
REMARK  143  A    between atoms: _382  and  _383
REMARK  144  A    between atoms: _385  and  _387
REMARK  145  A    between atoms: _387  and  _388
REMARK  146  A    between atoms: _387  and  _390
REMARK  147  A    between atoms: _393  and  _395
REMARK  148  A    between atoms: _395  and  _396
REMARK  149  A    between atoms: _395  and  _398
REMARK  150  A    between atoms: _398  and  _399
REMARK  151  A    between atoms: _399  and  _400
REMARK  152  A    between atoms: _405  and  _407
REMARK  153  A    between atoms: _407  and  _408
REMARK  154  A    between atoms: _407  and  _410
REMARK  155  A    between atoms: _410  and  _411
REMARK  156  A    between atoms: _417  and  _419
REMARK  157  A    between atoms: _419  and  _420
REMARK  158  A    between atoms: _419  and  _422
REMARK  159  A    between atoms: _422  and  _423
REMARK  160  A    between atoms: _423  and  _424
REMARK  161  A    between atoms: _424  and  _425
REMARK  162  A    between atoms: _434  and  _436
REMARK  163  A    between atoms: _436  and  _437
REMARK  164  A    between atoms: _436  and  _439
REMARK  165  A    between atoms: _439  and  _440
REMARK  166  A    between atoms: _440  and  _441
REMARK  167  A    between atoms: _444  and  _445
REMARK  168  A    between atoms: _450  and  _452
REMARK  169  A    between atoms: _452  and  _453
REMARK  170  A    between atoms: _452  and  _455
REMARK  171  A    between atoms: _455  and  _456
REMARK  172  A    between atoms: _456  and  _457
REMARK  173  A    between atoms: _459  and  _461
REMARK  174  A    between atoms: _461  and  _462
REMARK  175  A    between atoms: _464  and  _466
REMARK  176  A    between atoms: _466  and  _467
REMARK  177  A    between atoms: _466  and  _469
REMARK  178  A    between atoms: _472  and  _474
REMARK  179  A    between atoms: _474  and  _475
REMARK  180  A    between atoms: _474  and  _477
REMARK  181  A    between atoms: _477  and  _478
REMARK  182  A    between atoms: _488  and  _490
REMARK  183  A    between atoms: _490  and  _491
REMARK  184  A    between atoms: _493  and  _495
REMARK  185  A    between atoms: _495  and  _496
REMARK  186  A    between atoms: _495  and  _498
REMARK  187  A    between atoms: _498  and  _499
REMARK  188  A    between atoms: _509  and  _511
REMARK  189  A    between atoms: _511  and  _512
REMARK                            x       y       z     vdW  Elec       q    Type
REMARK                         _______ _______ _______ _____ _____    ______ ____
ROOT
ATOM      1  CA  TRP A   2      27.069  14.808  33.039  0.00  0.00    +0.153 C 
ENDROOT
BRANCH   1   4
ATOM      2  C   VAL A   1      27.166  13.706  35.221  0.00  0.00    +0.238 C 
ATOM      3  O   VAL A   1      28.384  13.804  35.277  0.00  0.00    -0.274 OA
ATOM      4  N   TRP A   2      26.448  14.251  34.242  0.00  0.00    -0.297 N 
ATOM      5  H   TRP A   2      25.413  14.282  34.335  0.00  0.00    +0.150 HD
BRANCH   2   6
ATOM      6  CA  VAL A   1      26.401  12.966  36.323  0.00  0.00    +0.145 C 
BRANCH   6   7
ATOM      7  CB  VAL A   1      26.127  11.512  35.911  0.00  0.00    +0.025 C 
ATOM      8  CG2 VAL A   1      25.598  10.718  37.115  0.00  0.00    +0.002 C 
ATOM      9  CG1 VAL A   1      27.410  10.841  35.354  0.00  0.00    +0.002 C 
ENDBRANCH   6   7
BRANCH   6  10
ATOM     10  N   VAL A   1      25.153  13.643  36.749  0.00  0.00    -0.238 NA
ATOM     11  H   VAL A   1      24.240  13.298  36.389  0.00  0.00    +0.142 HD
ENDBRANCH   6  10
ENDBRANCH   2   6
ENDBRANCH   1   4
BRANCH   1  12
ATOM     12  C   TRP A   2      28.105  15.900  33.327  0.00  0.00    +0.241 C 
ATOM     13  N   GLY A   3      27.791  16.790  34.260  0.00  0.00    -0.296 N 
ATOM     14  H   GLY A   3      26.900  16.687  34.787  0.00  0.00    +0.150 HD
ATOM     15  O   TRP A   2      29.157  15.965  32.679  0.00  0.00    -0.273 OA
BRANCH  13  16
ATOM     16  CA  GLY A   3      28.682  17.917  34.559  0.00  0.00    +0.163 C 
BRANCH  16  17
ATOM     17  C   GLY A   3      30.058  17.479  35.056  0.00  0.00    +0.229 C 
ATOM     18  O   GLY A   3      31.064  17.761  34.396  0.00  0.00    -0.286 OA
ENDBRANCH  16  17
ENDBRANCH  13  16
ENDBRANCH   1  12
BRANCH   1  19
ATOM     19  CB  TRP A   2      25.996  15.390  32.106  0.00  0.00    +0.057 C 
BRANCH  19  20
ATOM     20  CG  TRP A   2      24.946  14.433  31.596  0.00  0.00    -0.002 A 
ATOM     21  CD1 TRP A   2      23.598  14.527  31.786  0.00  0.00    +0.068 A 
ATOM     22  NE1 TRP A   2      22.956  13.516  31.143  0.00  0.00    -0.352 N 
ATOM     23  HE1 TRP A   2      21.928  13.360  31.147  0.00  0.00    +0.166 HD
ATOM     24  CE2 TRP A   2      23.871  12.735  30.490  0.00  0.00    +0.056 A 
ATOM     25  CZ2 TRP A   2      23.687  11.600  29.696  0.00  0.00    +0.017 A 
ATOM     26  CH2 TRP A   2      24.800  11.018  29.170  0.00  0.00    +0.001 A 
ATOM     27  CZ3 TRP A   2      26.091  11.545  29.411  0.00  0.00    +0.000 A 
ATOM     28  CE3 TRP A   2      26.270  12.673  30.180  0.00  0.00    +0.001 A 
ATOM     29  CD2 TRP A   2      25.145  13.285  30.744  0.00  0.00    +0.013 A 
ENDBRANCH  19  20
ENDBRANCH   1  19
TORSDOF 9
REMARK  Name = ../refined-set-2016/2gh9/2gh9_pocket.pdb
REMARK  189 active torsions:
REMARK  status: ('A' for Active; 'I' for Inactive)
REMARK    1  A    between atoms: _1  and  _3
REMARK    2  A    between atoms: _3  and  _4
REMARK    3  A    between atoms: _3  and  _6
REMARK    4  A    between atoms: _6  and  _7
REMARK    5  A    between atoms: _10  and  _12
REMARK    6  A    between atoms: _12  and  _13
REMARK    7  A    between atoms: _12  and  _15
REMARK    8  A    between atoms: _15  and  _16
REMARK    9  A    between atoms: _21  and  _23
REMARK   10  A    between atoms: _23  and  _24
REMARK   11  A    between atoms: _23  and  _26
REMARK   12  A    between atoms: _26  and  _27
REMARK   13  A    between atoms: _33  and  _35
REMARK   14  A    between atoms: _35  and  _36
REMARK   15  A    between atoms: _38  and  _40
REMARK   16  A    between atoms: _40  and  _41
REMARK   17  A    between atoms: _40  and  _43
REMARK   18  A    between atoms: _43  and  _44
REMARK   19  A    between atoms: _44  and  _45
REMARK   20  A    between atoms: _48  and  _50
REMARK   21  A    between atoms: _50  and  _51
REMARK   22  A    between atoms: _50  and  _53
REMARK   23  A    between atoms: _57  and  _58
REMARK   24  A    between atoms: _63  and  _65
REMARK   25  A    between atoms: _65  and  _66
REMARK   26  A    between atoms: _65  and  _68
REMARK   27  A    between atoms: _68  and  _69
REMARK   28  A    between atoms: _75  and  _77
REMARK   29  A    between atoms: _77  and  _78
REMARK   30  A    between atoms: _81  and  _83
REMARK   31  A    between atoms: _83  and  _84
REMARK   32  A    between atoms: _83  and  _86
REMARK   33  A    between atoms: _86  and  _87
REMARK   34  A    between atoms: _87  and  _88
REMARK   35  A    between atoms: _91  and  _93
REMARK   36  A    between atoms: _93  and  _94
REMARK   37  A    between atoms: _93  and  _96
REMARK   38  A    between atoms: _96  and  _97
REMARK   39  A    between atoms: _100  and  _102
REMARK   40  A    between atoms: _102  and  _103
REMARK   41  A    between atoms: _102  and  _105
REMARK   42  A    between atoms: _105  and  _106
REMARK   43  A    between atoms: _106  and  _107
REMARK   44  A    between atoms: _107  and  _108
REMARK   45  A    between atoms: _108  and  _109
REMARK   46  A    between atoms: _113  and  _115
REMARK   47  A    between atoms: _115  and  _116
REMARK   48  A    between atoms: _115  and  _118
REMARK   49  A    between atoms: _118  and  _119
REMARK   50  A    between atoms: _122  and  _124
REMARK   51  A    between atoms: _124  and  _125
REMARK   52  A    between atoms: _124  and  _127
REMARK   53  A    between atoms: _131  and  _132
REMARK   54  A    between atoms: _137  and  _139
REMARK   55  A    between atoms: _139  and  _140
REMARK   56  A    between atoms: _139  and  _142
REMARK   57  A    between atoms: _142  and  _143
REMARK   58  A    between atoms: _148  and  _150
REMARK   59  A    between atoms: _150  and  _151
REMARK   60  A    between atoms: _150  and  _153
REMARK   61  A    between atoms: _153  and  _154
REMARK   62  A    between atoms: _157  and  _159
REMARK   63  A    between atoms: _159  and  _160
REMARK   64  A    between atoms: _159  and  _162
REMARK   65  A    between atoms: _162  and  _163
REMARK   66  A    between atoms: _173  and  _175
REMARK   67  A    between atoms: _175  and  _176
REMARK   68  A    between atoms: _175  and  _178
REMARK   69  A    between atoms: _181  and  _183
REMARK   70  A    between atoms: _183  and  _184
REMARK   71  A    between atoms: _183  and  _186
REMARK   72  A    between atoms: _186  and  _187
REMARK   73  A    between atoms: _187  and  _188
REMARK   74  A    between atoms: _191  and  _193
REMARK   75  A    between atoms: _193  and  _194
REMARK   76  A    between atoms: _193  and  _196
REMARK   77  A    between atoms: _196  and  _197
REMARK   78  A    between atoms: _197  and  _198
REMARK   79  A    between atoms: _201  and  _203
REMARK   80  A    between atoms: _203  and  _204
REMARK   81  A    between atoms: _203  and  _206
REMARK   82  A    between atoms: _206  and  _207
REMARK   83  A    between atoms: _209  and  _211
REMARK   84  A    between atoms: _211  and  _212
REMARK   85  A    between atoms: _211  and  _214
REMARK   86  A    between atoms: _217  and  _219
REMARK   87  A    between atoms: _219  and  _220
REMARK   88  A    between atoms: _219  and  _222
REMARK   89  A    between atoms: _222  and  _223
REMARK   90  A    between atoms: _228  and  _230
REMARK   91  A    between atoms: _230  and  _231
REMARK   92  A    between atoms: _233  and  _235
REMARK   93  A    between atoms: _235  and  _236
REMARK   94  A    between atoms: _235  and  _238
REMARK   95  A    between atoms: _238  and  _239
REMARK   96  A    between atoms: _243  and  _244
REMARK   97  A    between atoms: _249  and  _251
REMARK   98  A    between atoms: _251  and  _252
REMARK   99  A    between atoms: _251  and  _254
REMARK  100  A    between atoms: _254  and  _255
REMARK  101  A    between atoms: _260  and  _261
REMARK  102  A    between atoms: _263  and  _265
REMARK  103  A    between atoms: _265  and  _266
REMARK  104  A    between atoms: _265  and  _268
REMARK  105  A    between atoms: _268  and  _269
REMARK  106  A    between atoms: _275  and  _277
REMARK  107  A    between atoms: _277  and  _278
REMARK  108  A    between atoms: _277  and  _280
REMARK  109  A    between atoms: _280  and  _281
REMARK  110  A    between atoms: _286  and  _288
REMARK  111  A    between atoms: _288  and  _289
REMARK  112  A    between atoms: _288  and  _291
REMARK  113  A    between atoms: _291  and  _292
REMARK  114  A    between atoms: _297  and  _298
REMARK  115  A    between atoms: _300  and  _302
REMARK  116  A    between atoms: _302  and  _303
REMARK  117  A    between atoms: _305  and  _307
REMARK  118  A    between atoms: _307  and  _308
REMARK  119  A    between atoms: _307  and  _310
REMARK  120  A    between atoms: _310  and  _311
REMARK  121  A    between atoms: _314  and  _316
REMARK  122  A    between atoms: _316  and  _317
REMARK  123  A    between atoms: _316  and  _319
REMARK  124  A    between atoms: _319  and  _320
REMARK  125  A    between atoms: _325  and  _327
REMARK  126  A    between atoms: _327  and  _328
REMARK  127  A    between atoms: _331  and  _332
REMARK  128  A    between atoms: _337  and  _339
REMARK  129  A    between atoms: _339  and  _340
REMARK  130  A    between atoms: _339  and  _342
REMARK  131  A    between atoms: _342  and  _343
REMARK  132  A    between atoms: _353  and  _355
REMARK  133  A    between atoms: _355  and  _356
REMARK  134  A    between atoms: _359  and  _361
REMARK  135  A    between atoms: _361  and  _362
REMARK  136  A    between atoms: _361  and  _364
REMARK  137  A    between atoms: _364  and  _365
REMARK  138  A    between atoms: _371  and  _373
REMARK  139  A    between atoms: _373  and  _374
REMARK  140  A    between atoms: _373  and  _376
REMARK  141  A    between atoms: _376  and  _377
REMARK  142  A    between atoms: _380  and  _382
REMARK  143  A    between atoms: _382  and  _383
REMARK  144  A    between atoms: _385  and  _387
REMARK  145  A    between atoms: _387  and  _388
REMARK  146  A    between atoms: _387  and  _390
REMARK  147  A    between atoms: _393  and  _395
REMARK  148  A    between atoms: _395  and  _396
REMARK  149  A    between atoms: _395  and  _398
REMARK  150  A    between atoms: _398  and  _399
REMARK  151  A    between atoms: _399  and  _400
REMARK  152  A    between atoms: _405  and  _407
REMARK  153  A    between atoms: _407  and  _408
REMARK  154  A    between atoms: _407  and  _410
REMARK  155  A    between atoms: _410  and  _411
REMARK  156  A    between atoms: _417  and  _419
REMARK  157  A    between atoms: _419  and  _420
REMARK  158  A    between atoms: _419  and  _422
REMARK  159  A    between atoms: _422  and  _423
REMARK  160  A    between atoms: _423  and  _424
REMARK  161  A    between atoms: _424  and  _425
REMARK  162  A    between atoms: _434  and  _436
REMARK  163  A    between atoms: _436  and  _437
REMARK  164  A    between atoms: _436  and  _439
REMARK  165  A    between atoms: _439  and  _440
REMARK  166  A    between atoms: _440  and  _441
REMARK  167  A    between atoms: _444  and  _445
REMARK  168  A    between atoms: _450  and  _452
REMARK  169  A    between atoms: _452  and  _453
REMARK  170  A    between atoms: _452  and  _455
REMARK  171  A    between atoms: _455  and  _456
REMARK  172  A    between atoms: _456  and  _457
REMARK  173  A    between atoms: _459  and  _461
REMARK  174  A    between atoms: _461  and  _462
REMARK  175  A    between atoms: _464  and  _466
REMARK  176  A    between atoms: _466  and  _467
REMARK  177  A    between atoms: _466  and  _469
REMARK  178  A    between atoms: _472  and  _474
REMARK  179  A    between atoms: _474  and  _475
REMARK  180  A    between atoms: _474  and  _477
REMARK  181  A    between atoms: _477  and  _478
REMARK  182  A    between atoms: _488  and  _490
REMARK  183  A    between atoms: _490  and  _491
REMARK  184  A    between atoms: _493  and  _495
REMARK  185  A    between atoms: _495  and  _496
REMARK  186  A    between atoms: _495  and  _498
REMARK  187  A    between atoms: _498  and  _499
REMARK  188  A    between atoms: _509  and  _511
REMARK  189  A    between atoms: _511  and  _512
REMARK                            x       y       z     vdW  Elec       q    Type
REMARK                         _______ _______ _______ _____ _____    ______ ____
ROOT
ATOM      1  CB  TRP A   1      30.720  12.653  33.533  0.00  0.00    +0.054 C 
ENDROOT
BRANCH   1   2
ATOM      2  CG  TRP A   1      31.143  11.482  32.686  0.00  0.00    -0.002 A 
ATOM      3  CD1 TRP A   1      32.417  11.038  32.426  0.00  0.00    +0.068 A 
ATOM      4  NE1 TRP A   1      32.378   9.913  31.638  0.00  0.00    -0.352 N 
ATOM      5  CE2 TRP A   1      31.071   9.598  31.384  0.00  0.00    +0.056 A 
ATOM      6  CZ2 TRP A   1      30.529   8.571  30.632  0.00  0.00    +0.017 A 
ATOM      7  CH2 TRP A   1      29.162   8.516  30.542  0.00  0.00    +0.001 A 
ATOM      8  CZ3 TRP A   1      28.345   9.456  31.181  0.00  0.00    +0.000 A 
ATOM      9  CE3 TRP A   1      28.875  10.482  31.909  0.00  0.00    +0.001 A 
ATOM     10  HE1 TRP A   1      33.206   9.387  31.292  0.00  0.00    +0.166 HD
ATOM     11  CD2 TRP A   1      30.266  10.574  32.022  0.00  0.00    +0.013 A 
ENDBRANCH   1   2
BRANCH   1  12
ATOM     12  CA  TRP A   1      31.840  13.533  34.108  0.00  0.00    +0.149 C 
BRANCH  12  13
ATOM     13  C   TRP A   1      32.594  14.237  33.004  0.00  0.00    +0.239 C 
ATOM     14  O   TRP A   1      33.720  13.855  32.684  0.00  0.00    -0.274 OA
ATOM     15  N   GLY A   2      31.971  15.263  32.434  0.00  0.00    -0.297 N 
ATOM     16  H   GLY A   2      31.006  15.489  32.748  0.00  0.00    +0.150 HD
BRANCH  15  17
ATOM     17  CA  GLY A   2      32.567  16.084  31.397  0.00  0.00    +0.163 C 
BRANCH  17  18
ATOM     18  C   GLY A   2      33.678  16.990  31.916  0.00  0.00    +0.229 C 
ATOM     19  O   GLY A   2      34.629  17.299  31.194  0.00  0.00    -0.286 OA
ENDBRANCH  17  18
ENDBRANCH  15  17
ENDBRANCH  12  13
BRANCH  12  20
ATOM     20  N   TRP A   1      31.289  14.502  35.066  0.00  0.00    -0.238 NA
ATOM     21  H   TRP A   1      30.257  14.578  35.174  0.00  0.00    +0.142 HD
ENDBRANCH  12  20
ENDBRANCH   1  12
TORSDOF 6
REMARK  Name = ../refined-set-2016/2gh9/2gh9_pocket.pdb
REMARK  189 active torsions:
REMARK  status: ('A' for Active; 'I' for Inactive)
REMARK    1  A    between atoms: _1  and  _3
REMARK    2  A    between atoms: _3  and  _4
REMARK    3  A    between atoms: _3  and  _6
REMARK    4  A    between atoms: _6  and  _7
REMARK    5  A    between atoms: _10  and  _12
REMARK    6  A    between atoms: _12  and  _13
REMARK    7  A    between atoms: _12  and  _15
REMARK    8  A    between atoms: _15  and  _16
REMARK    9  A    between atoms: _21  and  _23
REMARK   10  A    between atoms: _23  and  _24
REMARK   11  A    between atoms: _23  and  _26
REMARK   12  A    between atoms: _26  and  _27
REMARK   13  A    between atoms: _33  and  _35
REMARK   14  A    between atoms: _35  and  _36
REMARK   15  A    between atoms: _38  and  _40
REMARK   16  A    between atoms: _40  and  _41
REMARK   17  A    between atoms: _40  and  _43
REMARK   18  A    between atoms: _43  and  _44
REMARK   19  A    between atoms: _44  and  _45
REMARK   20  A    between atoms: _48  and  _50
REMARK   21  A    between atoms: _50  and  _51
REMARK   22  A    between atoms: _50  and  _53
REMARK   23  A    between atoms: _57  and  _58
REMARK   24  A    between atoms: _63  and  _65
REMARK   25  A    between atoms: _65  and  _66
REMARK   26  A    between atoms: _65  and  _68
REMARK   27  A    between atoms: _68  and  _69
REMARK   28  A    between atoms: _75  and  _77
REMARK   29  A    between atoms: _77  and  _78
REMARK   30  A    between atoms: _81  and  _83
REMARK   31  A    between atoms: _83  and  _84
REMARK   32  A    between atoms: _83  and  _86
REMARK   33  A    between atoms: _86  and  _87
REMARK   34  A    between atoms: _87  and  _88
REMARK   35  A    between atoms: _91  and  _93
REMARK   36  A    between atoms: _93  and  _94
REMARK   37  A    between atoms: _93  and  _96
REMARK   38  A    between atoms: _96  and  _97
REMARK   39  A    between atoms: _100  and  _102
REMARK   40  A    between atoms: _102  and  _103
REMARK   41  A    between atoms: _102  and  _105
REMARK   42  A    between atoms: _105  and  _106
REMARK   43  A    between atoms: _106  and  _107
REMARK   44  A    between atoms: _107  and  _108
REMARK   45  A    between atoms: _108  and  _109
REMARK   46  A    between atoms: _113  and  _115
REMARK   47  A    between atoms: _115  and  _116
REMARK   48  A    between atoms: _115  and  _118
REMARK   49  A    between atoms: _118  and  _119
REMARK   50  A    between atoms: _122  and  _124
REMARK   51  A    between atoms: _124  and  _125
REMARK   52  A    between atoms: _124  and  _127
REMARK   53  A    between atoms: _131  and  _132
REMARK   54  A    between atoms: _137  and  _139
REMARK   55  A    between atoms: _139  and  _140
REMARK   56  A    between atoms: _139  and  _142
REMARK   57  A    between atoms: _142  and  _143
REMARK   58  A    between atoms: _148  and  _150
REMARK   59  A    between atoms: _150  and  _151
REMARK   60  A    between atoms: _150  and  _153
REMARK   61  A    between atoms: _153  and  _154
REMARK   62  A    between atoms: _157  and  _159
REMARK   63  A    between atoms: _159  and  _160
REMARK   64  A    between atoms: _159  and  _162
REMARK   65  A    between atoms: _162  and  _163
REMARK   66  A    between atoms: _173  and  _175
REMARK   67  A    between atoms: _175  and  _176
REMARK   68  A    between atoms: _175  and  _178
REMARK   69  A    between atoms: _181  and  _183
REMARK   70  A    between atoms: _183  and  _184
REMARK   71  A    between atoms: _183  and  _186
REMARK   72  A    between atoms: _186  and  _187
REMARK   73  A    between atoms: _187  and  _188
REMARK   74  A    between atoms: _191  and  _193
REMARK   75  A    between atoms: _193  and  _194
REMARK   76  A    between atoms: _193  and  _196
REMARK   77  A    between atoms: _196  and  _197
REMARK   78  A    between atoms: _197  and  _198
REMARK   79  A    between atoms: _201  and  _203
REMARK   80  A    between atoms: _203  and  _204
REMARK   81  A    between atoms: _203  and  _206
REMARK   82  A    between atoms: _206  and  _207
REMARK   83  A    between atoms: _209  and  _211
REMARK   84  A    between atoms: _211  and  _212
REMARK   85  A    between atoms: _211  and  _214
REMARK   86  A    between atoms: _217  and  _219
REMARK   87  A    between atoms: _219  and  _220
REMARK   88  A    between atoms: _219  and  _222
REMARK   89  A    between atoms: _222  and  _223
REMARK   90  A    between atoms: _228  and  _230
REMARK   91  A    between atoms: _230  and  _231
REMARK   92  A    between atoms: _233  and  _235
REMARK   93  A    between atoms: _235  and  _236
REMARK   94  A    between atoms: _235  and  _238
REMARK   95  A    between atoms: _238  and  _239
REMARK   96  A    between atoms: _243  and  _244
REMARK   97  A    between atoms: _249  and  _251
REMARK   98  A    between atoms: _251  and  _252
REMARK   99  A    between atoms: _251  and  _254
REMARK  100  A    between atoms: _254  and  _255
REMARK  101  A    between atoms: _260  and  _261
REMARK  102  A    between atoms: _263  and  _265
REMARK  103  A    between atoms: _265  and  _266
REMARK  104  A    between atoms: _265  and  _268
REMARK  105  A    between atoms: _268  and  _269
REMARK  106  A    between atoms: _275  and  _277
REMARK  107  A    between atoms: _277  and  _278
REMARK  108  A    between atoms: _277  and  _280
REMARK  109  A    between atoms: _280  and  _281
REMARK  110  A    between atoms: _286  and  _288
REMARK  111  A    between atoms: _288  and  _289
REMARK  112  A    between atoms: _288  and  _291
REMARK  113  A    between atoms: _291  and  _292
REMARK  114  A    between atoms: _297  and  _298
REMARK  115  A    between atoms: _300  and  _302
REMARK  116  A    between atoms: _302  and  _303
REMARK  117  A    between atoms: _305  and  _307
REMARK  118  A    between atoms: _307  and  _308
REMARK  119  A    between atoms: _307  and  _310
REMARK  120  A    between atoms: _310  and  _311
REMARK  121  A    between atoms: _314  and  _316
REMARK  122  A    between atoms: _316  and  _317
REMARK  123  A    between atoms: _316  and  _319
REMARK  124  A    between atoms: _319  and  _320
REMARK  125  A    between atoms: _325  and  _327
REMARK  126  A    between atoms: _327  and  _328
REMARK  127  A    between atoms: _331  and  _332
REMARK  128  A    between atoms: _337  and  _339
REMARK  129  A    between atoms: _339  and  _340
REMARK  130  A    between atoms: _339  and  _342
REMARK  131  A    between atoms: _342  and  _343
REMARK  132  A    between atoms: _353  and  _355
REMARK  133  A    between atoms: _355  and  _356
REMARK  134  A    between atoms: _359  and  _361
REMARK  135  A    between atoms: _361  and  _362
REMARK  136  A    between atoms: _361  and  _364
REMARK  137  A    between atoms: _364  and  _365
REMARK  138  A    between atoms: _371  and  _373
REMARK  139  A    between atoms: _373  and  _374
REMARK  140  A    between atoms: _373  and  _376
REMARK  141  A    between atoms: _376  and  _377
REMARK  142  A    between atoms: _380  and  _382
REMARK  143  A    between atoms: _382  and  _383
REMARK  144  A    between atoms: _385  and  _387
REMARK  145  A    between atoms: _387  and  _388
REMARK  146  A    between atoms: _387  and  _390
REMARK  147  A    between atoms: _393  and  _395
REMARK  148  A    between atoms: _395  and  _396
REMARK  149  A    between atoms: _395  and  _398
REMARK  150  A    between atoms: _398  and  _399
REMARK  151  A    between atoms: _399  and  _400
REMARK  152  A    between atoms: _405  and  _407
REMARK  153  A    between atoms: _407  and  _408
REMARK  154  A    between atoms: _407  and  _410
REMARK  155  A    between atoms: _410  and  _411
REMARK  156  A    between atoms: _417  and  _419
REMARK  157  A    between atoms: _419  and  _420
REMARK  158  A    between atoms: _419  and  _422
REMARK  159  A    between atoms: _422  and  _423
REMARK  160  A    between atoms: _423  and  _424
REMARK  161  A    between atoms: _424  and  _425
REMARK  162  A    between atoms: _434  and  _436
REMARK  163  A    between atoms: _436  and  _437
REMARK  164  A    between atoms: _436  and  _439
REMARK  165  A    between atoms: _439  and  _440
REMARK  166  A    between atoms: _440  and  _441
REMARK  167  A    between atoms: _444  and  _445
REMARK  168  A    between atoms: _450  and  _452
REMARK  169  A    between atoms: _452  and  _453
REMARK  170  A    between atoms: _452  and  _455
REMARK  171  A    between atoms: _455  and  _456
REMARK  172  A    between atoms: _456  and  _457
REMARK  173  A    between atoms: _459  and  _461
REMARK  174  A    between atoms: _461  and  _462
REMARK  175  A    between atoms: _464  and  _466
REMARK  176  A    between atoms: _466  and  _467
REMARK  177  A    between atoms: _466  and  _469
REMARK  178  A    between atoms: _472  and  _474
REMARK  179  A    between atoms: _474  and  _475
REMARK  180  A    between atoms: _474  and  _477
REMARK  181  A    between atoms: _477  and  _478
REMARK  182  A    between atoms: _488  and  _490
REMARK  183  A    between atoms: _490  and  _491
REMARK  184  A    between atoms: _493  and  _495
REMARK  185  A    between atoms: _495  and  _496
REMARK  186  A    between atoms: _495  and  _498
REMARK  187  A    between atoms: _498  and  _499
REMARK  188  A    between atoms: _509  and  _511
REMARK  189  A    between atoms: _511  and  _512
REMARK                            x       y       z     vdW  Elec       q    Type
REMARK                         _______ _______ _______ _____ _____    ______ ____
ROOT
ATOM      1  O   HOH     1      21.810  17.879  10.338  0.00  0.00    +0.000 OA
ENDROOT
TORSDOF 0
REMARK  Name = ../refined-set-2016/2gh9/2gh9_pocket.pdb
REMARK  189 active torsions:
REMARK  status: ('A' for Active; 'I' for Inactive)
REMARK    1  A    between atoms: _1  and  _3
REMARK    2  A    between atoms: _3  and  _4
REMARK    3  A    between atoms: _3  and  _6
REMARK    4  A    between atoms: _6  and  _7
REMARK    5  A    between atoms: _10  and  _12
REMARK    6  A    between atoms: _12  and  _13
REMARK    7  A    between atoms: _12  and  _15
REMARK    8  A    between atoms: _15  and  _16
REMARK    9  A    between atoms: _21  and  _23
REMARK   10  A    between atoms: _23  and  _24
REMARK   11  A    between atoms: _23  and  _26
REMARK   12  A    between atoms: _26  and  _27
REMARK   13  A    between atoms: _33  and  _35
REMARK   14  A    between atoms: _35  and  _36
REMARK   15  A    between atoms: _38  and  _40
REMARK   16  A    between atoms: _40  and  _41
REMARK   17  A    between atoms: _40  and  _43
REMARK   18  A    between atoms: _43  and  _44
REMARK   19  A    between atoms: _44  and  _45
REMARK   20  A    between atoms: _48  and  _50
REMARK   21  A    between atoms: _50  and  _51
REMARK   22  A    between atoms: _50  and  _53
REMARK   23  A    between atoms: _57  and  _58
REMARK   24  A    between atoms: _63  and  _65
REMARK   25  A    between atoms: _65  and  _66
REMARK   26  A    between atoms: _65  and  _68
REMARK   27  A    between atoms: _68  and  _69
REMARK   28  A    between atoms: _75  and  _77
REMARK   29  A    between atoms: _77  and  _78
REMARK   30  A    between atoms: _81  and  _83
REMARK   31  A    between atoms: _83  and  _84
REMARK   32  A    between atoms: _83  and  _86
REMARK   33  A    between atoms: _86  and  _87
REMARK   34  A    between atoms: _87  and  _88
REMARK   35  A    between atoms: _91  and  _93
REMARK   36  A    between atoms: _93  and  _94
REMARK   37  A    between atoms: _93  and  _96
REMARK   38  A    between atoms: _96  and  _97
REMARK   39  A    between atoms: _100  and  _102
REMARK   40  A    between atoms: _102  and  _103
REMARK   41  A    between atoms: _102  and  _105
REMARK   42  A    between atoms: _105  and  _106
REMARK   43  A    between atoms: _106  and  _107
REMARK   44  A    between atoms: _107  and  _108
REMARK   45  A    between atoms: _108  and  _109
REMARK   46  A    between atoms: _113  and  _115
REMARK   47  A    between atoms: _115  and  _116
REMARK   48  A    between atoms: _115  and  _118
REMARK   49  A    between atoms: _118  and  _119
REMARK   50  A    between atoms: _122  and  _124
REMARK   51  A    between atoms: _124  and  _125
REMARK   52  A    between atoms: _124  and  _127
REMARK   53  A    between atoms: _131  and  _132
REMARK   54  A    between atoms: _137  and  _139
REMARK   55  A    between atoms: _139  and  _140
REMARK   56  A    between atoms: _139  and  _142
REMARK   57  A    between atoms: _142  and  _143
REMARK   58  A    between atoms: _148  and  _150
REMARK   59  A    between atoms: _150  and  _151
REMARK   60  A    between atoms: _150  and  _153
REMARK   61  A    between atoms: _153  and  _154
REMARK   62  A    between atoms: _157  and  _159
REMARK   63  A    between atoms: _159  and  _160
REMARK   64  A    between atoms: _159  and  _162
REMARK   65  A    between atoms: _162  and  _163
REMARK   66  A    between atoms: _173  and  _175
REMARK   67  A    between atoms: _175  and  _176
REMARK   68  A    between atoms: _175  and  _178
REMARK   69  A    between atoms: _181  and  _183
REMARK   70  A    between atoms: _183  and  _184
REMARK   71  A    between atoms: _183  and  _186
REMARK   72  A    between atoms: _186  and  _187
REMARK   73  A    between atoms: _187  and  _188
REMARK   74  A    between atoms: _191  and  _193
REMARK   75  A    between atoms: _193  and  _194
REMARK   76  A    between atoms: _193  and  _196
REMARK   77  A    between atoms: _196  and  _197
REMARK   78  A    between atoms: _197  and  _198
REMARK   79  A    between atoms: _201  and  _203
REMARK   80  A    between atoms: _203  and  _204
REMARK   81  A    between atoms: _203  and  _206
REMARK   82  A    between atoms: _206  and  _207
REMARK   83  A    between atoms: _209  and  _211
REMARK   84  A    between atoms: _211  and  _212
REMARK   85  A    between atoms: _211  and  _214
REMARK   86  A    between atoms: _217  and  _219
REMARK   87  A    between atoms: _219  and  _220
REMARK   88  A    between atoms: _219  and  _222
REMARK   89  A    between atoms: _222  and  _223
REMARK   90  A    between atoms: _228  and  _230
REMARK   91  A    between atoms: _230  and  _231
REMARK   92  A    between atoms: _233  and  _235
REMARK   93  A    between atoms: _235  and  _236
REMARK   94  A    between atoms: _235  and  _238
REMARK   95  A    between atoms: _238  and  _239
REMARK   96  A    between atoms: _243  and  _244
REMARK   97  A    between atoms: _249  and  _251
REMARK   98  A    between atoms: _251  and  _252
REMARK   99  A    between atoms: _251  and  _254
REMARK  100  A    between atoms: _254  and  _255
REMARK  101  A    between atoms: _260  and  _261
REMARK  102  A    between atoms: _263  and  _265
REMARK  103  A    between atoms: _265  and  _266
REMARK  104  A    between atoms: _265  and  _268
REMARK  105  A    between atoms: _268  and  _269
REMARK  106  A    between atoms: _275  and  _277
REMARK  107  A    between atoms: _277  and  _278
REMARK  108  A    between atoms: _277  and  _280
REMARK  109  A    between atoms: _280  and  _281
REMARK  110  A    between atoms: _286  and  _288
REMARK  111  A    between atoms: _288  and  _289
REMARK  112  A    between atoms: _288  and  _291
REMARK  113  A    between atoms: _291  and  _292
REMARK  114  A    between atoms: _297  and  _298
REMARK  115  A    between atoms: _300  and  _302
REMARK  116  A    between atoms: _302  and  _303
REMARK  117  A    between atoms: _305  and  _307
REMARK  118  A    between atoms: _307  and  _308
REMARK  119  A    between atoms: _307  and  _310
REMARK  120  A    between atoms: _310  and  _311
REMARK  121  A    between atoms: _314  and  _316
REMARK  122  A    between atoms: _316  and  _317
REMARK  123  A    between atoms: _316  and  _319
REMARK  124  A    between atoms: _319  and  _320
REMARK  125  A    between atoms: _325  and  _327
REMARK  126  A    between atoms: _327  and  _328
REMARK  127  A    between atoms: _331  and  _332
REMARK  128  A    between atoms: _337  and  _339
REMARK  129  A    between atoms: _339  and  _340
REMARK  130  A    between atoms: _339  and  _342
REMARK  131  A    between atoms: _342  and  _343
REMARK  132  A    between atoms: _353  and  _355
REMARK  133  A    between atoms: _355  and  _356
REMARK  134  A    between atoms: _359  and  _361
REMARK  135  A    between atoms: _361  and  _362
REMARK  136  A    between atoms: _361  and  _364
REMARK  137  A    between atoms: _364  and  _365
REMARK  138  A    between atoms: _371  and  _373
REMARK  139  A    between atoms: _373  and  _374
REMARK  140  A    between atoms: _373  and  _376
REMARK  141  A    between atoms: _376  and  _377
REMARK  142  A    between atoms: _380  and  _382
REMARK  143  A    between atoms: _382  and  _383
REMARK  144  A    between atoms: _385  and  _387
REMARK  145  A    between atoms: _387  and  _388
REMARK  146  A    between atoms: _387  and  _390
REMARK  147  A    between atoms: _393  and  _395
REMARK  148  A    between atoms: _395  and  _396
REMARK  149  A    between atoms: _395  and  _398
REMARK  150  A    between atoms: _398  and  _399
REMARK  151  A    between atoms: _399  and  _400
REMARK  152  A    between atoms: _405  and  _407
REMARK  153  A    between atoms: _407  and  _408
REMARK  154  A    between atoms: _407  and  _410
REMARK  155  A    between atoms: _410  and  _411
REMARK  156  A    between atoms: _417  and  _419
REMARK  157  A    between atoms: _419  and  _420
REMARK  158  A    between atoms: _419  and  _422
REMARK  159  A    between atoms: _422  and  _423
REMARK  160  A    between atoms: _423  and  _424
REMARK  161  A    between atoms: _424  and  _425
REMARK  162  A    between atoms: _434  and  _436
REMARK  163  A    between atoms: _436  and  _437
REMARK  164  A    between atoms: _436  and  _439
REMARK  165  A    between atoms: _439  and  _440
REMARK  166  A    between atoms: _440  and  _441
REMARK  167  A    between atoms: _444  and  _445
REMARK  168  A    between atoms: _450  and  _452
REMARK  169  A    between atoms: _452  and  _453
REMARK  170  A    between atoms: _452  and  _455
REMARK  171  A    between atoms: _455  and  _456
REMARK  172  A    between atoms: _456  and  _457
REMARK  173  A    between atoms: _459  and  _461
REMARK  174  A    between atoms: _461  and  _462
REMARK  175  A    between atoms: _464  and  _466
REMARK  176  A    between atoms: _466  and  _467
REMARK  177  A    between atoms: _466  and  _469
REMARK  178  A    between atoms: _472  and  _474
REMARK  179  A    between atoms: _474  and  _475
REMARK  180  A    between atoms: _474  and  _477
REMARK  181  A    between atoms: _477  and  _478
REMARK  182  A    between atoms: _488  and  _490
REMARK  183  A    between atoms: _490  and  _491
REMARK  184  A    between atoms: _493  and  _495
REMARK  185  A    between atoms: _495  and  _496
REMARK  186  A    between atoms: _495  and  _498
REMARK  187  A    between atoms: _498  and  _499
REMARK  188  A    between atoms: _509  and  _511
REMARK  189  A    between atoms: _511  and  _512
REMARK                            x       y       z     vdW  Elec       q    Type
REMARK                         _______ _______ _______ _____ _____    ______ ____
ROOT
ATOM      1  O   HOH     1      19.171  18.665   9.810  0.00  0.00    +0.000 OA
ENDROOT
TORSDOF 0
REMARK  Name = ../refined-set-2016/2gh9/2gh9_pocket.pdb
REMARK  189 active torsions:
REMARK  status: ('A' for Active; 'I' for Inactive)
REMARK    1  A    between atoms: _1  and  _3
REMARK    2  A    between atoms: _3  and  _4
REMARK    3  A    between atoms: _3  and  _6
REMARK    4  A    between atoms: _6  and  _7
REMARK    5  A    between atoms: _10  and  _12
REMARK    6  A    between atoms: _12  and  _13
REMARK    7  A    between atoms: _12  and  _15
REMARK    8  A    between atoms: _15  and  _16
REMARK    9  A    between atoms: _21  and  _23
REMARK   10  A    between atoms: _23  and  _24
REMARK   11  A    between atoms: _23  and  _26
REMARK   12  A    between atoms: _26  and  _27
REMARK   13  A    between atoms: _33  and  _35
REMARK   14  A    between atoms: _35  and  _36
REMARK   15  A    between atoms: _38  and  _40
REMARK   16  A    between atoms: _40  and  _41
REMARK   17  A    between atoms: _40  and  _43
REMARK   18  A    between atoms: _43  and  _44
REMARK   19  A    between atoms: _44  and  _45
REMARK   20  A    between atoms: _48  and  _50
REMARK   21  A    between atoms: _50  and  _51
REMARK   22  A    between atoms: _50  and  _53
REMARK   23  A    between atoms: _57  and  _58
REMARK   24  A    between atoms: _63  and  _65
REMARK   25  A    between atoms: _65  and  _66
REMARK   26  A    between atoms: _65  and  _68
REMARK   27  A    between atoms: _68  and  _69
REMARK   28  A    between atoms: _75  and  _77
REMARK   29  A    between atoms: _77  and  _78
REMARK   30  A    between atoms: _81  and  _83
REMARK   31  A    between atoms: _83  and  _84
REMARK   32  A    between atoms: _83  and  _86
REMARK   33  A    between atoms: _86  and  _87
REMARK   34  A    between atoms: _87  and  _88
REMARK   35  A    between atoms: _91  and  _93
REMARK   36  A    between atoms: _93  and  _94
REMARK   37  A    between atoms: _93  and  _96
REMARK   38  A    between atoms: _96  and  _97
REMARK   39  A    between atoms: _100  and  _102
REMARK   40  A    between atoms: _102  and  _103
REMARK   41  A    between atoms: _102  and  _105
REMARK   42  A    between atoms: _105  and  _106
REMARK   43  A    between atoms: _106  and  _107
REMARK   44  A    between atoms: _107  and  _108
REMARK   45  A    between atoms: _108  and  _109
REMARK   46  A    between atoms: _113  and  _115
REMARK   47  A    between atoms: _115  and  _116
REMARK   48  A    between atoms: _115  and  _118
REMARK   49  A    between atoms: _118  and  _119
REMARK   50  A    between atoms: _122  and  _124
REMARK   51  A    between atoms: _124  and  _125
REMARK   52  A    between atoms: _124  and  _127
REMARK   53  A    between atoms: _131  and  _132
REMARK   54  A    between atoms: _137  and  _139
REMARK   55  A    between atoms: _139  and  _140
REMARK   56  A    between atoms: _139  and  _142
REMARK   57  A    between atoms: _142  and  _143
REMARK   58  A    between atoms: _148  and  _150
REMARK   59  A    between atoms: _150  and  _151
REMARK   60  A    between atoms: _150  and  _153
REMARK   61  A    between atoms: _153  and  _154
REMARK   62  A    between atoms: _157  and  _159
REMARK   63  A    between atoms: _159  and  _160
REMARK   64  A    between atoms: _159  and  _162
REMARK   65  A    between atoms: _162  and  _163
REMARK   66  A    between atoms: _173  and  _175
REMARK   67  A    between atoms: _175  and  _176
REMARK   68  A    between atoms: _175  and  _178
REMARK   69  A    between atoms: _181  and  _183
REMARK   70  A    between atoms: _183  and  _184
REMARK   71  A    between atoms: _183  and  _186
REMARK   72  A    between atoms: _186  and  _187
REMARK   73  A    between atoms: _187  and  _188
REMARK   74  A    between atoms: _191  and  _193
REMARK   75  A    between atoms: _193  and  _194
REMARK   76  A    between atoms: _193  and  _196
REMARK   77  A    between atoms: _196  and  _197
REMARK   78  A    between atoms: _197  and  _198
REMARK   79  A    between atoms: _201  and  _203
REMARK   80  A    between atoms: _203  and  _204
REMARK   81  A    between atoms: _203  and  _206
REMARK   82  A    between atoms: _206  and  _207
REMARK   83  A    between atoms: _209  and  _211
REMARK   84  A    between atoms: _211  and  _212
REMARK   85  A    between atoms: _211  and  _214
REMARK   86  A    between atoms: _217  and  _219
REMARK   87  A    between atoms: _219  and  _220
REMARK   88  A    between atoms: _219  and  _222
REMARK   89  A    between atoms: _222  and  _223
REMARK   90  A    between atoms: _228  and  _230
REMARK   91  A    between atoms: _230  and  _231
REMARK   92  A    between atoms: _233  and  _235
REMARK   93  A    between atoms: _235  and  _236
REMARK   94  A    between atoms: _235  and  _238
REMARK   95  A    between atoms: _238  and  _239
REMARK   96  A    between atoms: _243  and  _244
REMARK   97  A    between atoms: _249  and  _251
REMARK   98  A    between atoms: _251  and  _252
REMARK   99  A    between atoms: _251  and  _254
REMARK  100  A    between atoms: _254  and  _255
REMARK  101  A    between atoms: _260  and  _261
REMARK  102  A    between atoms: _263  and  _265
REMARK  103  A    between atoms: _265  and  _266
REMARK  104  A    between atoms: _265  and  _268
REMARK  105  A    between atoms: _268  and  _269
REMARK  106  A    between atoms: _275  and  _277
REMARK  107  A    between atoms: _277  and  _278
REMARK  108  A    between atoms: _277  and  _280
REMARK  109  A    between atoms: _280  and  _281
REMARK  110  A    between atoms: _286  and  _288
REMARK  111  A    between atoms: _288  and  _289
REMARK  112  A    between atoms: _288  and  _291
REMARK  113  A    between atoms: _291  and  _292
REMARK  114  A    between atoms: _297  and  _298
REMARK  115  A    between atoms: _300  and  _302
REMARK  116  A    between atoms: _302  and  _303
REMARK  117  A    between atoms: _305  and  _307
REMARK  118  A    between atoms: _307  and  _308
REMARK  119  A    between atoms: _307  and  _310
REMARK  120  A    between atoms: _310  and  _311
REMARK  121  A    between atoms: _314  and  _316
REMARK  122  A    between atoms: _316  and  _317
REMARK  123  A    between atoms: _316  and  _319
REMARK  124  A    between atoms: _319  and  _320
REMARK  125  A    between atoms: _325  and  _327
REMARK  126  A    between atoms: _327  and  _328
REMARK  127  A    between atoms: _331  and  _332
REMARK  128  A    between atoms: _337  and  _339
REMARK  129  A    between atoms: _339  and  _340
REMARK  130  A    between atoms: _339  and  _342
REMARK  131  A    between atoms: _342  and  _343
REMARK  132  A    between atoms: _353  and  _355
REMARK  133  A    between atoms: _355  and  _356
REMARK  134  A    between atoms: _359  and  _361
REMARK  135  A    between atoms: _361  and  _362
REMARK  136  A    between atoms: _361  and  _364
REMARK  137  A    between atoms: _364  and  _365
REMARK  138  A    between atoms: _371  and  _373
REMARK  139  A    between atoms: _373  and  _374
REMARK  140  A    between atoms: _373  and  _376
REMARK  141  A    between atoms: _376  and  _377
REMARK  142  A    between atoms: _380  and  _382
REMARK  143  A    between atoms: _382  and  _383
REMARK  144  A    between atoms: _385  and  _387
REMARK  145  A    between atoms: _387  and  _388
REMARK  146  A    between atoms: _387  and  _390
REMARK  147  A    between atoms: _393  and  _395
REMARK  148  A    between atoms: _395  and  _396
REMARK  149  A    between atoms: _395  and  _398
REMARK  150  A    between atoms: _398  and  _399
REMARK  151  A    between atoms: _399  and  _400
REMARK  152  A    between atoms: _405  and  _407
REMARK  153  A    between atoms: _407  and  _408
REMARK  154  A    between atoms: _407  and  _410
REMARK  155  A    between atoms: _410  and  _411
REMARK  156  A    between atoms: _417  and  _419
REMARK  157  A    between atoms: _419  and  _420
REMARK  158  A    between atoms: _419  and  _422
REMARK  159  A    between atoms: _422  and  _423
REMARK  160  A    between atoms: _423  and  _424
REMARK  161  A    between atoms: _424  and  _425
REMARK  162  A    between atoms: _434  and  _436
REMARK  163  A    between atoms: _436  and  _437
REMARK  164  A    between atoms: _436  and  _439
REMARK  165  A    between atoms: _439  and  _440
REMARK  166  A    between atoms: _440  and  _441
REMARK  167  A    between atoms: _444  and  _445
REMARK  168  A    between atoms: _450  and  _452
REMARK  169  A    between atoms: _452  and  _453
REMARK  170  A    between atoms: _452  and  _455
REMARK  171  A    between atoms: _455  and  _456
REMARK  172  A    between atoms: _456  and  _457
REMARK  173  A    between atoms: _459  and  _461
REMARK  174  A    between atoms: _461  and  _462
REMARK  175  A    between atoms: _464  and  _466
REMARK  176  A    between atoms: _466  and  _467
REMARK  177  A    between atoms: _466  and  _469
REMARK  178  A    between atoms: _472  and  _474
REMARK  179  A    between atoms: _474  and  _475
REMARK  180  A    between atoms: _474  and  _477
REMARK  181  A    between atoms: _477  and  _478
REMARK  182  A    between atoms: _488  and  _490
REMARK  183  A    between atoms: _490  and  _491
REMARK  184  A    between atoms: _493  and  _495
REMARK  185  A    between atoms: _495  and  _496
REMARK  186  A    between atoms: _495  and  _498
REMARK  187  A    between atoms: _498  and  _499
REMARK  188  A    between atoms: _509  and  _511
REMARK  189  A    between atoms: _511  and  _512
REMARK                            x       y       z     vdW  Elec       q    Type
REMARK                         _______ _______ _______ _____ _____    ______ ____
ROOT
ATOM      1  O   HOH     1      16.553  12.674  34.080  0.00  0.00    +0.000 OA
ENDROOT
TORSDOF 0
REMARK  Name = ../refined-set-2016/2gh9/2gh9_pocket.pdb
REMARK  189 active torsions:
REMARK  status: ('A' for Active; 'I' for Inactive)
REMARK    1  A    between atoms: _1  and  _3
REMARK    2  A    between atoms: _3  and  _4
REMARK    3  A    between atoms: _3  and  _6
REMARK    4  A    between atoms: _6  and  _7
REMARK    5  A    between atoms: _10  and  _12
REMARK    6  A    between atoms: _12  and  _13
REMARK    7  A    between atoms: _12  and  _15
REMARK    8  A    between atoms: _15  and  _16
REMARK    9  A    between atoms: _21  and  _23
REMARK   10  A    between atoms: _23  and  _24
REMARK   11  A    between atoms: _23  and  _26
REMARK   12  A    between atoms: _26  and  _27
REMARK   13  A    between atoms: _33  and  _35
REMARK   14  A    between atoms: _35  and  _36
REMARK   15  A    between atoms: _38  and  _40
REMARK   16  A    between atoms: _40  and  _41
REMARK   17  A    between atoms: _40  and  _43
REMARK   18  A    between atoms: _43  and  _44
REMARK   19  A    between atoms: _44  and  _45
REMARK   20  A    between atoms: _48  and  _50
REMARK   21  A    between atoms: _50  and  _51
REMARK   22  A    between atoms: _50  and  _53
REMARK   23  A    between atoms: _57  and  _58
REMARK   24  A    between atoms: _63  and  _65
REMARK   25  A    between atoms: _65  and  _66
REMARK   26  A    between atoms: _65  and  _68
REMARK   27  A    between atoms: _68  and  _69
REMARK   28  A    between atoms: _75  and  _77
REMARK   29  A    between atoms: _77  and  _78
REMARK   30  A    between atoms: _81  and  _83
REMARK   31  A    between atoms: _83  and  _84
REMARK   32  A    between atoms: _83  and  _86
REMARK   33  A    between atoms: _86  and  _87
REMARK   34  A    between atoms: _87  and  _88
REMARK   35  A    between atoms: _91  and  _93
REMARK   36  A    between atoms: _93  and  _94
REMARK   37  A    between atoms: _93  and  _96
REMARK   38  A    between atoms: _96  and  _97
REMARK   39  A    between atoms: _100  and  _102
REMARK   40  A    between atoms: _102  and  _103
REMARK   41  A    between atoms: _102  and  _105
REMARK   42  A    between atoms: _105  and  _106
REMARK   43  A    between atoms: _106  and  _107
REMARK   44  A    between atoms: _107  and  _108
REMARK   45  A    between atoms: _108  and  _109
REMARK   46  A    between atoms: _113  and  _115
REMARK   47  A    between atoms: _115  and  _116
REMARK   48  A    between atoms: _115  and  _118
REMARK   49  A    between atoms: _118  and  _119
REMARK   50  A    between atoms: _122  and  _124
REMARK   51  A    between atoms: _124  and  _125
REMARK   52  A    between atoms: _124  and  _127
REMARK   53  A    between atoms: _131  and  _132
REMARK   54  A    between atoms: _137  and  _139
REMARK   55  A    between atoms: _139  and  _140
REMARK   56  A    between atoms: _139  and  _142
REMARK   57  A    between atoms: _142  and  _143
REMARK   58  A    between atoms: _148  and  _150
REMARK   59  A    between atoms: _150  and  _151
REMARK   60  A    between atoms: _150  and  _153
REMARK   61  A    between atoms: _153  and  _154
REMARK   62  A    between atoms: _157  and  _159
REMARK   63  A    between atoms: _159  and  _160
REMARK   64  A    between atoms: _159  and  _162
REMARK   65  A    between atoms: _162  and  _163
REMARK   66  A    between atoms: _173  and  _175
REMARK   67  A    between atoms: _175  and  _176
REMARK   68  A    between atoms: _175  and  _178
REMARK   69  A    between atoms: _181  and  _183
REMARK   70  A    between atoms: _183  and  _184
REMARK   71  A    between atoms: _183  and  _186
REMARK   72  A    between atoms: _186  and  _187
REMARK   73  A    between atoms: _187  and  _188
REMARK   74  A    between atoms: _191  and  _193
REMARK   75  A    between atoms: _193  and  _194
REMARK   76  A    between atoms: _193  and  _196
REMARK   77  A    between atoms: _196  and  _197
REMARK   78  A    between atoms: _197  and  _198
REMARK   79  A    between atoms: _201  and  _203
REMARK   80  A    between atoms: _203  and  _204
REMARK   81  A    between atoms: _203  and  _206
REMARK   82  A    between atoms: _206  and  _207
REMARK   83  A    between atoms: _209  and  _211
REMARK   84  A    between atoms: _211  and  _212
REMARK   85  A    between atoms: _211  and  _214
REMARK   86  A    between atoms: _217  and  _219
REMARK   87  A    between atoms: _219  and  _220
REMARK   88  A    between atoms: _219  and  _222
REMARK   89  A    between atoms: _222  and  _223
REMARK   90  A    between atoms: _228  and  _230
REMARK   91  A    between atoms: _230  and  _231
REMARK   92  A    between atoms: _233  and  _235
REMARK   93  A    between atoms: _235  and  _236
REMARK   94  A    between atoms: _235  and  _238
REMARK   95  A    between atoms: _238  and  _239
REMARK   96  A    between atoms: _243  and  _244
REMARK   97  A    between atoms: _249  and  _251
REMARK   98  A    between atoms: _251  and  _252
REMARK   99  A    between atoms: _251  and  _254
REMARK  100  A    between atoms: _254  and  _255
REMARK  101  A    between atoms: _260  and  _261
REMARK  102  A    between atoms: _263  and  _265
REMARK  103  A    between atoms: _265  and  _266
REMARK  104  A    between atoms: _265  and  _268
REMARK  105  A    between atoms: _268  and  _269
REMARK  106  A    between atoms: _275  and  _277
REMARK  107  A    between atoms: _277  and  _278
REMARK  108  A    between atoms: _277  and  _280
REMARK  109  A    between atoms: _280  and  _281
REMARK  110  A    between atoms: _286  and  _288
REMARK  111  A    between atoms: _288  and  _289
REMARK  112  A    between atoms: _288  and  _291
REMARK  113  A    between atoms: _291  and  _292
REMARK  114  A    between atoms: _297  and  _298
REMARK  115  A    between atoms: _300  and  _302
REMARK  116  A    between atoms: _302  and  _303
REMARK  117  A    between atoms: _305  and  _307
REMARK  118  A    between atoms: _307  and  _308
REMARK  119  A    between atoms: _307  and  _310
REMARK  120  A    between atoms: _310  and  _311
REMARK  121  A    between atoms: _314  and  _316
REMARK  122  A    between atoms: _316  and  _317
REMARK  123  A    between atoms: _316  and  _319
REMARK  124  A    between atoms: _319  and  _320
REMARK  125  A    between atoms: _325  and  _327
REMARK  126  A    between atoms: _327  and  _328
REMARK  127  A    between atoms: _331  and  _332
REMARK  128  A    between atoms: _337  and  _339
REMARK  129  A    between atoms: _339  and  _340
REMARK  130  A    between atoms: _339  and  _342
REMARK  131  A    between atoms: _342  and  _343
REMARK  132  A    between atoms: _353  and  _355
REMARK  133  A    between atoms: _355  and  _356
REMARK  134  A    between atoms: _359  and  _361
REMARK  135  A    between atoms: _361  and  _362
REMARK  136  A    between atoms: _361  and  _364
REMARK  137  A    between atoms: _364  and  _365
REMARK  138  A    between atoms: _371  and  _373
REMARK  139  A    between atoms: _373  and  _374
REMARK  140  A    between atoms: _373  and  _376
REMARK  141  A    between atoms: _376  and  _377
REMARK  142  A    between atoms: _380  and  _382
REMARK  143  A    between atoms: _382  and  _383
REMARK  144  A    between atoms: _385  and  _387
REMARK  145  A    between atoms: _387  and  _388
REMARK  146  A    between atoms: _387  and  _390
REMARK  147  A    between atoms: _393  and  _395
REMARK  148  A    between atoms: _395  and  _396
REMARK  149  A    between atoms: _395  and  _398
REMARK  150  A    between atoms: _398  and  _399
REMARK  151  A    between atoms: _399  and  _400
REMARK  152  A    between atoms: _405  and  _407
REMARK  153  A    between atoms: _407  and  _408
REMARK  154  A    between atoms: _407  and  _410
REMARK  155  A    between atoms: _410  and  _411
REMARK  156  A    between atoms: _417  and  _419
REMARK  157  A    between atoms: _419  and  _420
REMARK  158  A    between atoms: _419  and  _422
REMARK  159  A    between atoms: _422  and  _423
REMARK  160  A    between atoms: _423  and  _424
REMARK  161  A    between atoms: _424  and  _425
REMARK  162  A    between atoms: _434  and  _436
REMARK  163  A    between atoms: _436  and  _437
REMARK  164  A    between atoms: _436  and  _439
REMARK  165  A    between atoms: _439  and  _440
REMARK  166  A    between atoms: _440  and  _441
REMARK  167  A    between atoms: _444  and  _445
REMARK  168  A    between atoms: _450  and  _452
REMARK  169  A    between atoms: _452  and  _453
REMARK  170  A    between atoms: _452  and  _455
REMARK  171  A    between atoms: _455  and  _456
REMARK  172  A    between atoms: _456  and  _457
REMARK  173  A    between atoms: _459  and  _461
REMARK  174  A    between atoms: _461  and  _462
REMARK  175  A    between atoms: _464  and  _466
REMARK  176  A    between atoms: _466  and  _467
REMARK  177  A    between atoms: _466  and  _469
REMARK  178  A    between atoms: _472  and  _474
REMARK  179  A    between atoms: _474  and  _475
REMARK  180  A    between atoms: _474  and  _477
REMARK  181  A    between atoms: _477  and  _478
REMARK  182  A    between atoms: _488  and  _490
REMARK  183  A    between atoms: _490  and  _491
REMARK  184  A    between atoms: _493  and  _495
REMARK  185  A    between atoms: _495  and  _496
REMARK  186  A    between atoms: _495  and  _498
REMARK  187  A    between atoms: _498  and  _499
REMARK  188  A    between atoms: _509  and  _511
REMARK  189  A    between atoms: _511  and  _512
REMARK                            x       y       z     vdW  Elec       q    Type
REMARK                         _______ _______ _______ _____ _____    ______ ____
ROOT
ATOM      1  O   HOH     1      19.143  19.199  13.638  0.00  0.00    +0.000 OA
ENDROOT
TORSDOF 0
REMARK  Name = ../refined-set-2016/2gh9/2gh9_pocket.pdb
REMARK  189 active torsions:
REMARK  status: ('A' for Active; 'I' for Inactive)
REMARK    1  A    between atoms: _1  and  _3
REMARK    2  A    between atoms: _3  and  _4
REMARK    3  A    between atoms: _3  and  _6
REMARK    4  A    between atoms: _6  and  _7
REMARK    5  A    between atoms: _10  and  _12
REMARK    6  A    between atoms: _12  and  _13
REMARK    7  A    between atoms: _12  and  _15
REMARK    8  A    between atoms: _15  and  _16
REMARK    9  A    between atoms: _21  and  _23
REMARK   10  A    between atoms: _23  and  _24
REMARK   11  A    between atoms: _23  and  _26
REMARK   12  A    between atoms: _26  and  _27
REMARK   13  A    between atoms: _33  and  _35
REMARK   14  A    between atoms: _35  and  _36
REMARK   15  A    between atoms: _38  and  _40
REMARK   16  A    between atoms: _40  and  _41
REMARK   17  A    between atoms: _40  and  _43
REMARK   18  A    between atoms: _43  and  _44
REMARK   19  A    between atoms: _44  and  _45
REMARK   20  A    between atoms: _48  and  _50
REMARK   21  A    between atoms: _50  and  _51
REMARK   22  A    between atoms: _50  and  _53
REMARK   23  A    between atoms: _57  and  _58
REMARK   24  A    between atoms: _63  and  _65
REMARK   25  A    between atoms: _65  and  _66
REMARK   26  A    between atoms: _65  and  _68
REMARK   27  A    between atoms: _68  and  _69
REMARK   28  A    between atoms: _75  and  _77
REMARK   29  A    between atoms: _77  and  _78
REMARK   30  A    between atoms: _81  and  _83
REMARK   31  A    between atoms: _83  and  _84
REMARK   32  A    between atoms: _83  and  _86
REMARK   33  A    between atoms: _86  and  _87
REMARK   34  A    between atoms: _87  and  _88
REMARK   35  A    between atoms: _91  and  _93
REMARK   36  A    between atoms: _93  and  _94
REMARK   37  A    between atoms: _93  and  _96
REMARK   38  A    between atoms: _96  and  _97
REMARK   39  A    between atoms: _100  and  _102
REMARK   40  A    between atoms: _102  and  _103
REMARK   41  A    between atoms: _102  and  _105
REMARK   42  A    between atoms: _105  and  _106
REMARK   43  A    between atoms: _106  and  _107
REMARK   44  A    between atoms: _107  and  _108
REMARK   45  A    between atoms: _108  and  _109
REMARK   46  A    between atoms: _113  and  _115
REMARK   47  A    between atoms: _115  and  _116
REMARK   48  A    between atoms: _115  and  _118
REMARK   49  A    between atoms: _118  and  _119
REMARK   50  A    between atoms: _122  and  _124
REMARK   51  A    between atoms: _124  and  _125
REMARK   52  A    between atoms: _124  and  _127
REMARK   53  A    between atoms: _131  and  _132
REMARK   54  A    between atoms: _137  and  _139
REMARK   55  A    between atoms: _139  and  _140
REMARK   56  A    between atoms: _139  and  _142
REMARK   57  A    between atoms: _142  and  _143
REMARK   58  A    between atoms: _148  and  _150
REMARK   59  A    between atoms: _150  and  _151
REMARK   60  A    between atoms: _150  and  _153
REMARK   61  A    between atoms: _153  and  _154
REMARK   62  A    between atoms: _157  and  _159
REMARK   63  A    between atoms: _159  and  _160
REMARK   64  A    between atoms: _159  and  _162
REMARK   65  A    between atoms: _162  and  _163
REMARK   66  A    between atoms: _173  and  _175
REMARK   67  A    between atoms: _175  and  _176
REMARK   68  A    between atoms: _175  and  _178
REMARK   69  A    between atoms: _181  and  _183
REMARK   70  A    between atoms: _183  and  _184
REMARK   71  A    between atoms: _183  and  _186
REMARK   72  A    between atoms: _186  and  _187
REMARK   73  A    between atoms: _187  and  _188
REMARK   74  A    between atoms: _191  and  _193
REMARK   75  A    between atoms: _193  and  _194
REMARK   76  A    between atoms: _193  and  _196
REMARK   77  A    between atoms: _196  and  _197
REMARK   78  A    between atoms: _197  and  _198
REMARK   79  A    between atoms: _201  and  _203
REMARK   80  A    between atoms: _203  and  _204
REMARK   81  A    between atoms: _203  and  _206
REMARK   82  A    between atoms: _206  and  _207
REMARK   83  A    between atoms: _209  and  _211
REMARK   84  A    between atoms: _211  and  _212
REMARK   85  A    between atoms: _211  and  _214
REMARK   86  A    between atoms: _217  and  _219
REMARK   87  A    between atoms: _219  and  _220
REMARK   88  A    between atoms: _219  and  _222
REMARK   89  A    between atoms: _222  and  _223
REMARK   90  A    between atoms: _228  and  _230
REMARK   91  A    between atoms: _230  and  _231
REMARK   92  A    between atoms: _233  and  _235
REMARK   93  A    between atoms: _235  and  _236
REMARK   94  A    between atoms: _235  and  _238
REMARK   95  A    between atoms: _238  and  _239
REMARK   96  A    between atoms: _243  and  _244
REMARK   97  A    between atoms: _249  and  _251
REMARK   98  A    between atoms: _251  and  _252
REMARK   99  A    between atoms: _251  and  _254
REMARK  100  A    between atoms: _254  and  _255
REMARK  101  A    between atoms: _260  and  _261
REMARK  102  A    between atoms: _263  and  _265
REMARK  103  A    between atoms: _265  and  _266
REMARK  104  A    between atoms: _265  and  _268
REMARK  105  A    between atoms: _268  and  _269
REMARK  106  A    between atoms: _275  and  _277
REMARK  107  A    between atoms: _277  and  _278
REMARK  108  A    between atoms: _277  and  _280
REMARK  109  A    between atoms: _280  and  _281
REMARK  110  A    between atoms: _286  and  _288
REMARK  111  A    between atoms: _288  and  _289
REMARK  112  A    between atoms: _288  and  _291
REMARK  113  A    between atoms: _291  and  _292
REMARK  114  A    between atoms: _297  and  _298
REMARK  115  A    between atoms: _300  and  _302
REMARK  116  A    between atoms: _302  and  _303
REMARK  117  A    between atoms: _305  and  _307
REMARK  118  A    between atoms: _307  and  _308
REMARK  119  A    between atoms: _307  and  _310
REMARK  120  A    between atoms: _310  and  _311
REMARK  121  A    between atoms: _314  and  _316
REMARK  122  A    between atoms: _316  and  _317
REMARK  123  A    between atoms: _316  and  _319
REMARK  124  A    between atoms: _319  and  _320
REMARK  125  A    between atoms: _325  and  _327
REMARK  126  A    between atoms: _327  and  _328
REMARK  127  A    between atoms: _331  and  _332
REMARK  128  A    between atoms: _337  and  _339
REMARK  129  A    between atoms: _339  and  _340
REMARK  130  A    between atoms: _339  and  _342
REMARK  131  A    between atoms: _342  and  _343
REMARK  132  A    between atoms: _353  and  _355
REMARK  133  A    between atoms: _355  and  _356
REMARK  134  A    between atoms: _359  and  _361
REMARK  135  A    between atoms: _361  and  _362
REMARK  136  A    between atoms: _361  and  _364
REMARK  137  A    between atoms: _364  and  _365
REMARK  138  A    between atoms: _371  and  _373
REMARK  139  A    between atoms: _373  and  _374
REMARK  140  A    between atoms: _373  and  _376
REMARK  141  A    between atoms: _376  and  _377
REMARK  142  A    between atoms: _380  and  _382
REMARK  143  A    between atoms: _382  and  _383
REMARK  144  A    between atoms: _385  and  _387
REMARK  145  A    between atoms: _387  and  _388
REMARK  146  A    between atoms: _387  and  _390
REMARK  147  A    between atoms: _393  and  _395
REMARK  148  A    between atoms: _395  and  _396
REMARK  149  A    between atoms: _395  and  _398
REMARK  150  A    between atoms: _398  and  _399
REMARK  151  A    between atoms: _399  and  _400
REMARK  152  A    between atoms: _405  and  _407
REMARK  153  A    between atoms: _407  and  _408
REMARK  154  A    between atoms: _407  and  _410
REMARK  155  A    between atoms: _410  and  _411
REMARK  156  A    between atoms: _417  and  _419
REMARK  157  A    between atoms: _419  and  _420
REMARK  158  A    between atoms: _419  and  _422
REMARK  159  A    between atoms: _422  and  _423
REMARK  160  A    between atoms: _423  and  _424
REMARK  161  A    between atoms: _424  and  _425
REMARK  162  A    between atoms: _434  and  _436
REMARK  163  A    between atoms: _436  and  _437
REMARK  164  A    between atoms: _436  and  _439
REMARK  165  A    between atoms: _439  and  _440
REMARK  166  A    between atoms: _440  and  _441
REMARK  167  A    between atoms: _444  and  _445
REMARK  168  A    between atoms: _450  and  _452
REMARK  169  A    between atoms: _452  and  _453
REMARK  170  A    between atoms: _452  and  _455
REMARK  171  A    between atoms: _455  and  _456
REMARK  172  A    between atoms: _456  and  _457
REMARK  173  A    between atoms: _459  and  _461
REMARK  174  A    between atoms: _461  and  _462
REMARK  175  A    between atoms: _464  and  _466
REMARK  176  A    between atoms: _466  and  _467
REMARK  177  A    between atoms: _466  and  _469
REMARK  178  A    between atoms: _472  and  _474
REMARK  179  A    between atoms: _474  and  _475
REMARK  180  A    between atoms: _474  and  _477
REMARK  181  A    between atoms: _477  and  _478
REMARK  182  A    between atoms: _488  and  _490
REMARK  183  A    between atoms: _490  and  _491
REMARK  184  A    between atoms: _493  and  _495
REMARK  185  A    between atoms: _495  and  _496
REMARK  186  A    between atoms: _495  and  _498
REMARK  187  A    between atoms: _498  and  _499
REMARK  188  A    between atoms: _509  and  _511
REMARK  189  A    between atoms: _511  and  _512
REMARK                            x       y       z     vdW  Elec       q    Type
REMARK                         _______ _______ _______ _____ _____    ______ ____
ROOT
ATOM      1  O   HOH     1      27.756  18.325  21.502  0.00  0.00    +0.000 OA
ENDROOT
TORSDOF 0
REMARK  Name = ../refined-set-2016/2gh9/2gh9_pocket.pdb
REMARK  189 active torsions:
REMARK  status: ('A' for Active; 'I' for Inactive)
REMARK    1  A    between atoms: _1  and  _3
REMARK    2  A    between atoms: _3  and  _4
REMARK    3  A    between atoms: _3  and  _6
REMARK    4  A    between atoms: _6  and  _7
REMARK    5  A    between atoms: _10  and  _12
REMARK    6  A    between atoms: _12  and  _13
REMARK    7  A    between atoms: _12  and  _15
REMARK    8  A    between atoms: _15  and  _16
REMARK    9  A    between atoms: _21  and  _23
REMARK   10  A    between atoms: _23  and  _24
REMARK   11  A    between atoms: _23  and  _26
REMARK   12  A    between atoms: _26  and  _27
REMARK   13  A    between atoms: _33  and  _35
REMARK   14  A    between atoms: _35  and  _36
REMARK   15  A    between atoms: _38  and  _40
REMARK   16  A    between atoms: _40  and  _41
REMARK   17  A    between atoms: _40  and  _43
REMARK   18  A    between atoms: _43  and  _44
REMARK   19  A    between atoms: _44  and  _45
REMARK   20  A    between atoms: _48  and  _50
REMARK   21  A    between atoms: _50  and  _51
REMARK   22  A    between atoms: _50  and  _53
REMARK   23  A    between atoms: _57  and  _58
REMARK   24  A    between atoms: _63  and  _65
REMARK   25  A    between atoms: _65  and  _66
REMARK   26  A    between atoms: _65  and  _68
REMARK   27  A    between atoms: _68  and  _69
REMARK   28  A    between atoms: _75  and  _77
REMARK   29  A    between atoms: _77  and  _78
REMARK   30  A    between atoms: _81  and  _83
REMARK   31  A    between atoms: _83  and  _84
REMARK   32  A    between atoms: _83  and  _86
REMARK   33  A    between atoms: _86  and  _87
REMARK   34  A    between atoms: _87  and  _88
REMARK   35  A    between atoms: _91  and  _93
REMARK   36  A    between atoms: _93  and  _94
REMARK   37  A    between atoms: _93  and  _96
REMARK   38  A    between atoms: _96  and  _97
REMARK   39  A    between atoms: _100  and  _102
REMARK   40  A    between atoms: _102  and  _103
REMARK   41  A    between atoms: _102  and  _105
REMARK   42  A    between atoms: _105  and  _106
REMARK   43  A    between atoms: _106  and  _107
REMARK   44  A    between atoms: _107  and  _108
REMARK   45  A    between atoms: _108  and  _109
REMARK   46  A    between atoms: _113  and  _115
REMARK   47  A    between atoms: _115  and  _116
REMARK   48  A    between atoms: _115  and  _118
REMARK   49  A    between atoms: _118  and  _119
REMARK   50  A    between atoms: _122  and  _124
REMARK   51  A    between atoms: _124  and  _125
REMARK   52  A    between atoms: _124  and  _127
REMARK   53  A    between atoms: _131  and  _132
REMARK   54  A    between atoms: _137  and  _139
REMARK   55  A    between atoms: _139  and  _140
REMARK   56  A    between atoms: _139  and  _142
REMARK   57  A    between atoms: _142  and  _143
REMARK   58  A    between atoms: _148  and  _150
REMARK   59  A    between atoms: _150  and  _151
REMARK   60  A    between atoms: _150  and  _153
REMARK   61  A    between atoms: _153  and  _154
REMARK   62  A    between atoms: _157  and  _159
REMARK   63  A    between atoms: _159  and  _160
REMARK   64  A    between atoms: _159  and  _162
REMARK   65  A    between atoms: _162  and  _163
REMARK   66  A    between atoms: _173  and  _175
REMARK   67  A    between atoms: _175  and  _176
REMARK   68  A    between atoms: _175  and  _178
REMARK   69  A    between atoms: _181  and  _183
REMARK   70  A    between atoms: _183  and  _184
REMARK   71  A    between atoms: _183  and  _186
REMARK   72  A    between atoms: _186  and  _187
REMARK   73  A    between atoms: _187  and  _188
REMARK   74  A    between atoms: _191  and  _193
REMARK   75  A    between atoms: _193  and  _194
REMARK   76  A    between atoms: _193  and  _196
REMARK   77  A    between atoms: _196  and  _197
REMARK   78  A    between atoms: _197  and  _198
REMARK   79  A    between atoms: _201  and  _203
REMARK   80  A    between atoms: _203  and  _204
REMARK   81  A    between atoms: _203  and  _206
REMARK   82  A    between atoms: _206  and  _207
REMARK   83  A    between atoms: _209  and  _211
REMARK   84  A    between atoms: _211  and  _212
REMARK   85  A    between atoms: _211  and  _214
REMARK   86  A    between atoms: _217  and  _219
REMARK   87  A    between atoms: _219  and  _220
REMARK   88  A    between atoms: _219  and  _222
REMARK   89  A    between atoms: _222  and  _223
REMARK   90  A    between atoms: _228  and  _230
REMARK   91  A    between atoms: _230  and  _231
REMARK   92  A    between atoms: _233  and  _235
REMARK   93  A    between atoms: _235  and  _236
REMARK   94  A    between atoms: _235  and  _238
REMARK   95  A    between atoms: _238  and  _239
REMARK   96  A    between atoms: _243  and  _244
REMARK   97  A    between atoms: _249  and  _251
REMARK   98  A    between atoms: _251  and  _252
REMARK   99  A    between atoms: _251  and  _254
REMARK  100  A    between atoms: _254  and  _255
REMARK  101  A    between atoms: _260  and  _261
REMARK  102  A    between atoms: _263  and  _265
REMARK  103  A    between atoms: _265  and  _266
REMARK  104  A    between atoms: _265  and  _268
REMARK  105  A    between atoms: _268  and  _269
REMARK  106  A    between atoms: _275  and  _277
REMARK  107  A    between atoms: _277  and  _278
REMARK  108  A    between atoms: _277  and  _280
REMARK  109  A    between atoms: _280  and  _281
REMARK  110  A    between atoms: _286  and  _288
REMARK  111  A    between atoms: _288  and  _289
REMARK  112  A    between atoms: _288  and  _291
REMARK  113  A    between atoms: _291  and  _292
REMARK  114  A    between atoms: _297  and  _298
REMARK  115  A    between atoms: _300  and  _302
REMARK  116  A    between atoms: _302  and  _303
REMARK  117  A    between atoms: _305  and  _307
REMARK  118  A    between atoms: _307  and  _308
REMARK  119  A    between atoms: _307  and  _310
REMARK  120  A    between atoms: _310  and  _311
REMARK  121  A    between atoms: _314  and  _316
REMARK  122  A    between atoms: _316  and  _317
REMARK  123  A    between atoms: _316  and  _319
REMARK  124  A    between atoms: _319  and  _320
REMARK  125  A    between atoms: _325  and  _327
REMARK  126  A    between atoms: _327  and  _328
REMARK  127  A    between atoms: _331  and  _332
REMARK  128  A    between atoms: _337  and  _339
REMARK  129  A    between atoms: _339  and  _340
REMARK  130  A    between atoms: _339  and  _342
REMARK  131  A    between atoms: _342  and  _343
REMARK  132  A    between atoms: _353  and  _355
REMARK  133  A    between atoms: _355  and  _356
REMARK  134  A    between atoms: _359  and  _361
REMARK  135  A    between atoms: _361  and  _362
REMARK  136  A    between atoms: _361  and  _364
REMARK  137  A    between atoms: _364  and  _365
REMARK  138  A    between atoms: _371  and  _373
REMARK  139  A    between atoms: _373  and  _374
REMARK  140  A    between atoms: _373  and  _376
REMARK  141  A    between atoms: _376  and  _377
REMARK  142  A    between atoms: _380  and  _382
REMARK  143  A    between atoms: _382  and  _383
REMARK  144  A    between atoms: _385  and  _387
REMARK  145  A    between atoms: _387  and  _388
REMARK  146  A    between atoms: _387  and  _390
REMARK  147  A    between atoms: _393  and  _395
REMARK  148  A    between atoms: _395  and  _396
REMARK  149  A    between atoms: _395  and  _398
REMARK  150  A    between atoms: _398  and  _399
REMARK  151  A    between atoms: _399  and  _400
REMARK  152  A    between atoms: _405  and  _407
REMARK  153  A    between atoms: _407  and  _408
REMARK  154  A    between atoms: _407  and  _410
REMARK  155  A    between atoms: _410  and  _411
REMARK  156  A    between atoms: _417  and  _419
REMARK  157  A    between atoms: _419  and  _420
REMARK  158  A    between atoms: _419  and  _422
REMARK  159  A    between atoms: _422  and  _423
REMARK  160  A    between atoms: _423  and  _424
REMARK  161  A    between atoms: _424  and  _425
REMARK  162  A    between atoms: _434  and  _436
REMARK  163  A    between atoms: _436  and  _437
REMARK  164  A    between atoms: _436  and  _439
REMARK  165  A    between atoms: _439  and  _440
REMARK  166  A    between atoms: _440  and  _441
REMARK  167  A    between atoms: _444  and  _445
REMARK  168  A    between atoms: _450  and  _452
REMARK  169  A    between atoms: _452  and  _453
REMARK  170  A    between atoms: _452  and  _455
REMARK  171  A    between atoms: _455  and  _456
REMARK  172  A    between atoms: _456  and  _457
REMARK  173  A    between atoms: _459  and  _461
REMARK  174  A    between atoms: _461  and  _462
REMARK  175  A    between atoms: _464  and  _466
REMARK  176  A    between atoms: _466  and  _467
REMARK  177  A    between atoms: _466  and  _469
REMARK  178  A    between atoms: _472  and  _474
REMARK  179  A    between atoms: _474  and  _475
REMARK  180  A    between atoms: _474  and  _477
REMARK  181  A    between atoms: _477  and  _478
REMARK  182  A    between atoms: _488  and  _490
REMARK  183  A    between atoms: _490  and  _491
REMARK  184  A    between atoms: _493  and  _495
REMARK  185  A    between atoms: _495  and  _496
REMARK  186  A    between atoms: _495  and  _498
REMARK  187  A    between atoms: _498  and  _499
REMARK  188  A    between atoms: _509  and  _511
REMARK  189  A    between atoms: _511  and  _512
REMARK                            x       y       z     vdW  Elec       q    Type
REMARK                         _______ _______ _______ _____ _____    ______ ____
ROOT
ATOM      1  O   HOH     1      21.248  10.762  22.330  0.00  0.00    +0.000 OA
ENDROOT
TORSDOF 0
REMARK  Name = ../refined-set-2016/2gh9/2gh9_pocket.pdb
REMARK  189 active torsions:
REMARK  status: ('A' for Active; 'I' for Inactive)
REMARK    1  A    between atoms: _1  and  _3
REMARK    2  A    between atoms: _3  and  _4
REMARK    3  A    between atoms: _3  and  _6
REMARK    4  A    between atoms: _6  and  _7
REMARK    5  A    between atoms: _10  and  _12
REMARK    6  A    between atoms: _12  and  _13
REMARK    7  A    between atoms: _12  and  _15
REMARK    8  A    between atoms: _15  and  _16
REMARK    9  A    between atoms: _21  and  _23
REMARK   10  A    between atoms: _23  and  _24
REMARK   11  A    between atoms: _23  and  _26
REMARK   12  A    between atoms: _26  and  _27
REMARK   13  A    between atoms: _33  and  _35
REMARK   14  A    between atoms: _35  and  _36
REMARK   15  A    between atoms: _38  and  _40
REMARK   16  A    between atoms: _40  and  _41
REMARK   17  A    between atoms: _40  and  _43
REMARK   18  A    between atoms: _43  and  _44
REMARK   19  A    between atoms: _44  and  _45
REMARK   20  A    between atoms: _48  and  _50
REMARK   21  A    between atoms: _50  and  _51
REMARK   22  A    between atoms: _50  and  _53
REMARK   23  A    between atoms: _57  and  _58
REMARK   24  A    between atoms: _63  and  _65
REMARK   25  A    between atoms: _65  and  _66
REMARK   26  A    between atoms: _65  and  _68
REMARK   27  A    between atoms: _68  and  _69
REMARK   28  A    between atoms: _75  and  _77
REMARK   29  A    between atoms: _77  and  _78
REMARK   30  A    between atoms: _81  and  _83
REMARK   31  A    between atoms: _83  and  _84
REMARK   32  A    between atoms: _83  and  _86
REMARK   33  A    between atoms: _86  and  _87
REMARK   34  A    between atoms: _87  and  _88
REMARK   35  A    between atoms: _91  and  _93
REMARK   36  A    between atoms: _93  and  _94
REMARK   37  A    between atoms: _93  and  _96
REMARK   38  A    between atoms: _96  and  _97
REMARK   39  A    between atoms: _100  and  _102
REMARK   40  A    between atoms: _102  and  _103
REMARK   41  A    between atoms: _102  and  _105
REMARK   42  A    between atoms: _105  and  _106
REMARK   43  A    between atoms: _106  and  _107
REMARK   44  A    between atoms: _107  and  _108
REMARK   45  A    between atoms: _108  and  _109
REMARK   46  A    between atoms: _113  and  _115
REMARK   47  A    between atoms: _115  and  _116
REMARK   48  A    between atoms: _115  and  _118
REMARK   49  A    between atoms: _118  and  _119
REMARK   50  A    between atoms: _122  and  _124
REMARK   51  A    between atoms: _124  and  _125
REMARK   52  A    between atoms: _124  and  _127
REMARK   53  A    between atoms: _131  and  _132
REMARK   54  A    between atoms: _137  and  _139
REMARK   55  A    between atoms: _139  and  _140
REMARK   56  A    between atoms: _139  and  _142
REMARK   57  A    between atoms: _142  and  _143
REMARK   58  A    between atoms: _148  and  _150
REMARK   59  A    between atoms: _150  and  _151
REMARK   60  A    between atoms: _150  and  _153
REMARK   61  A    between atoms: _153  and  _154
REMARK   62  A    between atoms: _157  and  _159
REMARK   63  A    between atoms: _159  and  _160
REMARK   64  A    between atoms: _159  and  _162
REMARK   65  A    between atoms: _162  and  _163
REMARK   66  A    between atoms: _173  and  _175
REMARK   67  A    between atoms: _175  and  _176
REMARK   68  A    between atoms: _175  and  _178
REMARK   69  A    between atoms: _181  and  _183
REMARK   70  A    between atoms: _183  and  _184
REMARK   71  A    between atoms: _183  and  _186
REMARK   72  A    between atoms: _186  and  _187
REMARK   73  A    between atoms: _187  and  _188
REMARK   74  A    between atoms: _191  and  _193
REMARK   75  A    between atoms: _193  and  _194
REMARK   76  A    between atoms: _193  and  _196
REMARK   77  A    between atoms: _196  and  _197
REMARK   78  A    between atoms: _197  and  _198
REMARK   79  A    between atoms: _201  and  _203
REMARK   80  A    between atoms: _203  and  _204
REMARK   81  A    between atoms: _203  and  _206
REMARK   82  A    between atoms: _206  and  _207
REMARK   83  A    between atoms: _209  and  _211
REMARK   84  A    between atoms: _211  and  _212
REMARK   85  A    between atoms: _211  and  _214
REMARK   86  A    between atoms: _217  and  _219
REMARK   87  A    between atoms: _219  and  _220
REMARK   88  A    between atoms: _219  and  _222
REMARK   89  A    between atoms: _222  and  _223
REMARK   90  A    between atoms: _228  and  _230
REMARK   91  A    between atoms: _230  and  _231
REMARK   92  A    between atoms: _233  and  _235
REMARK   93  A    between atoms: _235  and  _236
REMARK   94  A    between atoms: _235  and  _238
REMARK   95  A    between atoms: _238  and  _239
REMARK   96  A    between atoms: _243  and  _244
REMARK   97  A    between atoms: _249  and  _251
REMARK   98  A    between atoms: _251  and  _252
REMARK   99  A    between atoms: _251  and  _254
REMARK  100  A    between atoms: _254  and  _255
REMARK  101  A    between atoms: _260  and  _261
REMARK  102  A    between atoms: _263  and  _265
REMARK  103  A    between atoms: _265  and  _266
REMARK  104  A    between atoms: _265  and  _268
REMARK  105  A    between atoms: _268  and  _269
REMARK  106  A    between atoms: _275  and  _277
REMARK  107  A    between atoms: _277  and  _278
REMARK  108  A    between atoms: _277  and  _280
REMARK  109  A    between atoms: _280  and  _281
REMARK  110  A    between atoms: _286  and  _288
REMARK  111  A    between atoms: _288  and  _289
REMARK  112  A    between atoms: _288  and  _291
REMARK  113  A    between atoms: _291  and  _292
REMARK  114  A    between atoms: _297  and  _298
REMARK  115  A    between atoms: _300  and  _302
REMARK  116  A    between atoms: _302  and  _303
REMARK  117  A    between atoms: _305  and  _307
REMARK  118  A    between atoms: _307  and  _308
REMARK  119  A    between atoms: _307  and  _310
REMARK  120  A    between atoms: _310  and  _311
REMARK  121  A    between atoms: _314  and  _316
REMARK  122  A    between atoms: _316  and  _317
REMARK  123  A    between atoms: _316  and  _319
REMARK  124  A    between atoms: _319  and  _320
REMARK  125  A    between atoms: _325  and  _327
REMARK  126  A    between atoms: _327  and  _328
REMARK  127  A    between atoms: _331  and  _332
REMARK  128  A    between atoms: _337  and  _339
REMARK  129  A    between atoms: _339  and  _340
REMARK  130  A    between atoms: _339  and  _342
REMARK  131  A    between atoms: _342  and  _343
REMARK  132  A    between atoms: _353  and  _355
REMARK  133  A    between atoms: _355  and  _356
REMARK  134  A    between atoms: _359  and  _361
REMARK  135  A    between atoms: _361  and  _362
REMARK  136  A    between atoms: _361  and  _364
REMARK  137  A    between atoms: _364  and  _365
REMARK  138  A    between atoms: _371  and  _373
REMARK  139  A    between atoms: _373  and  _374
REMARK  140  A    between atoms: _373  and  _376
REMARK  141  A    between atoms: _376  and  _377
REMARK  142  A    between atoms: _380  and  _382
REMARK  143  A    between atoms: _382  and  _383
REMARK  144  A    between atoms: _385  and  _387
REMARK  145  A    between atoms: _387  and  _388
REMARK  146  A    between atoms: _387  and  _390
REMARK  147  A    between atoms: _393  and  _395
REMARK  148  A    between atoms: _395  and  _396
REMARK  149  A    between atoms: _395  and  _398
REMARK  150  A    between atoms: _398  and  _399
REMARK  151  A    between atoms: _399  and  _400
REMARK  152  A    between atoms: _405  and  _407
REMARK  153  A    between atoms: _407  and  _408
REMARK  154  A    between atoms: _407  and  _410
REMARK  155  A    between atoms: _410  and  _411
REMARK  156  A    between atoms: _417  and  _419
REMARK  157  A    between atoms: _419  and  _420
REMARK  158  A    between atoms: _419  and  _422
REMARK  159  A    between atoms: _422  and  _423
REMARK  160  A    between atoms: _423  and  _424
REMARK  161  A    between atoms: _424  and  _425
REMARK  162  A    between atoms: _434  and  _436
REMARK  163  A    between atoms: _436  and  _437
REMARK  164  A    between atoms: _436  and  _439
REMARK  165  A    between atoms: _439  and  _440
REMARK  166  A    between atoms: _440  and  _441
REMARK  167  A    between atoms: _444  and  _445
REMARK  168  A    between atoms: _450  and  _452
REMARK  169  A    between atoms: _452  and  _453
REMARK  170  A    between atoms: _452  and  _455
REMARK  171  A    between atoms: _455  and  _456
REMARK  172  A    between atoms: _456  and  _457
REMARK  173  A    between atoms: _459  and  _461
REMARK  174  A    between atoms: _461  and  _462
REMARK  175  A    between atoms: _464  and  _466
REMARK  176  A    between atoms: _466  and  _467
REMARK  177  A    between atoms: _466  and  _469
REMARK  178  A    between atoms: _472  and  _474
REMARK  179  A    between atoms: _474  and  _475
REMARK  180  A    between atoms: _474  and  _477
REMARK  181  A    between atoms: _477  and  _478
REMARK  182  A    between atoms: _488  and  _490
REMARK  183  A    between atoms: _490  and  _491
REMARK  184  A    between atoms: _493  and  _495
REMARK  185  A    between atoms: _495  and  _496
REMARK  186  A    between atoms: _495  and  _498
REMARK  187  A    between atoms: _498  and  _499
REMARK  188  A    between atoms: _509  and  _511
REMARK  189  A    between atoms: _511  and  _512
REMARK                            x       y       z     vdW  Elec       q    Type
REMARK                         _______ _______ _______ _____ _____    ______ ____
ROOT
ATOM      1  O   HOH     1      27.450   7.791  23.257  0.00  0.00    +0.000 OA
ENDROOT
TORSDOF 0
REMARK  Name = ../refined-set-2016/2gh9/2gh9_pocket.pdb
REMARK  189 active torsions:
REMARK  status: ('A' for Active; 'I' for Inactive)
REMARK    1  A    between atoms: _1  and  _3
REMARK    2  A    between atoms: _3  and  _4
REMARK    3  A    between atoms: _3  and  _6
REMARK    4  A    between atoms: _6  and  _7
REMARK    5  A    between atoms: _10  and  _12
REMARK    6  A    between atoms: _12  and  _13
REMARK    7  A    between atoms: _12  and  _15
REMARK    8  A    between atoms: _15  and  _16
REMARK    9  A    between atoms: _21  and  _23
REMARK   10  A    between atoms: _23  and  _24
REMARK   11  A    between atoms: _23  and  _26
REMARK   12  A    between atoms: _26  and  _27
REMARK   13  A    between atoms: _33  and  _35
REMARK   14  A    between atoms: _35  and  _36
REMARK   15  A    between atoms: _38  and  _40
REMARK   16  A    between atoms: _40  and  _41
REMARK   17  A    between atoms: _40  and  _43
REMARK   18  A    between atoms: _43  and  _44
REMARK   19  A    between atoms: _44  and  _45
REMARK   20  A    between atoms: _48  and  _50
REMARK   21  A    between atoms: _50  and  _51
REMARK   22  A    between atoms: _50  and  _53
REMARK   23  A    between atoms: _57  and  _58
REMARK   24  A    between atoms: _63  and  _65
REMARK   25  A    between atoms: _65  and  _66
REMARK   26  A    between atoms: _65  and  _68
REMARK   27  A    between atoms: _68  and  _69
REMARK   28  A    between atoms: _75  and  _77
REMARK   29  A    between atoms: _77  and  _78
REMARK   30  A    between atoms: _81  and  _83
REMARK   31  A    between atoms: _83  and  _84
REMARK   32  A    between atoms: _83  and  _86
REMARK   33  A    between atoms: _86  and  _87
REMARK   34  A    between atoms: _87  and  _88
REMARK   35  A    between atoms: _91  and  _93
REMARK   36  A    between atoms: _93  and  _94
REMARK   37  A    between atoms: _93  and  _96
REMARK   38  A    between atoms: _96  and  _97
REMARK   39  A    between atoms: _100  and  _102
REMARK   40  A    between atoms: _102  and  _103
REMARK   41  A    between atoms: _102  and  _105
REMARK   42  A    between atoms: _105  and  _106
REMARK   43  A    between atoms: _106  and  _107
REMARK   44  A    between atoms: _107  and  _108
REMARK   45  A    between atoms: _108  and  _109
REMARK   46  A    between atoms: _113  and  _115
REMARK   47  A    between atoms: _115  and  _116
REMARK   48  A    between atoms: _115  and  _118
REMARK   49  A    between atoms: _118  and  _119
REMARK   50  A    between atoms: _122  and  _124
REMARK   51  A    between atoms: _124  and  _125
REMARK   52  A    between atoms: _124  and  _127
REMARK   53  A    between atoms: _131  and  _132
REMARK   54  A    between atoms: _137  and  _139
REMARK   55  A    between atoms: _139  and  _140
REMARK   56  A    between atoms: _139  and  _142
REMARK   57  A    between atoms: _142  and  _143
REMARK   58  A    between atoms: _148  and  _150
REMARK   59  A    between atoms: _150  and  _151
REMARK   60  A    between atoms: _150  and  _153
REMARK   61  A    between atoms: _153  and  _154
REMARK   62  A    between atoms: _157  and  _159
REMARK   63  A    between atoms: _159  and  _160
REMARK   64  A    between atoms: _159  and  _162
REMARK   65  A    between atoms: _162  and  _163
REMARK   66  A    between atoms: _173  and  _175
REMARK   67  A    between atoms: _175  and  _176
REMARK   68  A    between atoms: _175  and  _178
REMARK   69  A    between atoms: _181  and  _183
REMARK   70  A    between atoms: _183  and  _184
REMARK   71  A    between atoms: _183  and  _186
REMARK   72  A    between atoms: _186  and  _187
REMARK   73  A    between atoms: _187  and  _188
REMARK   74  A    between atoms: _191  and  _193
REMARK   75  A    between atoms: _193  and  _194
REMARK   76  A    between atoms: _193  and  _196
REMARK   77  A    between atoms: _196  and  _197
REMARK   78  A    between atoms: _197  and  _198
REMARK   79  A    between atoms: _201  and  _203
REMARK   80  A    between atoms: _203  and  _204
REMARK   81  A    between atoms: _203  and  _206
REMARK   82  A    between atoms: _206  and  _207
REMARK   83  A    between atoms: _209  and  _211
REMARK   84  A    between atoms: _211  and  _212
REMARK   85  A    between atoms: _211  and  _214
REMARK   86  A    between atoms: _217  and  _219
REMARK   87  A    between atoms: _219  and  _220
REMARK   88  A    between atoms: _219  and  _222
REMARK   89  A    between atoms: _222  and  _223
REMARK   90  A    between atoms: _228  and  _230
REMARK   91  A    between atoms: _230  and  _231
REMARK   92  A    between atoms: _233  and  _235
REMARK   93  A    between atoms: _235  and  _236
REMARK   94  A    between atoms: _235  and  _238
REMARK   95  A    between atoms: _238  and  _239
REMARK   96  A    between atoms: _243  and  _244
REMARK   97  A    between atoms: _249  and  _251
REMARK   98  A    between atoms: _251  and  _252
REMARK   99  A    between atoms: _251  and  _254
REMARK  100  A    between atoms: _254  and  _255
REMARK  101  A    between atoms: _260  and  _261
REMARK  102  A    between atoms: _263  and  _265
REMARK  103  A    between atoms: _265  and  _266
REMARK  104  A    between atoms: _265  and  _268
REMARK  105  A    between atoms: _268  and  _269
REMARK  106  A    between atoms: _275  and  _277
REMARK  107  A    between atoms: _277  and  _278
REMARK  108  A    between atoms: _277  and  _280
REMARK  109  A    between atoms: _280  and  _281
REMARK  110  A    between atoms: _286  and  _288
REMARK  111  A    between atoms: _288  and  _289
REMARK  112  A    between atoms: _288  and  _291
REMARK  113  A    between atoms: _291  and  _292
REMARK  114  A    between atoms: _297  and  _298
REMARK  115  A    between atoms: _300  and  _302
REMARK  116  A    between atoms: _302  and  _303
REMARK  117  A    between atoms: _305  and  _307
REMARK  118  A    between atoms: _307  and  _308
REMARK  119  A    between atoms: _307  and  _310
REMARK  120  A    between atoms: _310  and  _311
REMARK  121  A    between atoms: _314  and  _316
REMARK  122  A    between atoms: _316  and  _317
REMARK  123  A    between atoms: _316  and  _319
REMARK  124  A    between atoms: _319  and  _320
REMARK  125  A    between atoms: _325  and  _327
REMARK  126  A    between atoms: _327  and  _328
REMARK  127  A    between atoms: _331  and  _332
REMARK  128  A    between atoms: _337  and  _339
REMARK  129  A    between atoms: _339  and  _340
REMARK  130  A    between atoms: _339  and  _342
REMARK  131  A    between atoms: _342  and  _343
REMARK  132  A    between atoms: _353  and  _355
REMARK  133  A    between atoms: _355  and  _356
REMARK  134  A    between atoms: _359  and  _361
REMARK  135  A    between atoms: _361  and  _362
REMARK  136  A    between atoms: _361  and  _364
REMARK  137  A    between atoms: _364  and  _365
REMARK  138  A    between atoms: _371  and  _373
REMARK  139  A    between atoms: _373  and  _374
REMARK  140  A    between atoms: _373  and  _376
REMARK  141  A    between atoms: _376  and  _377
REMARK  142  A    between atoms: _380  and  _382
REMARK  143  A    between atoms: _382  and  _383
REMARK  144  A    between atoms: _385  and  _387
REMARK  145  A    between atoms: _387  and  _388
REMARK  146  A    between atoms: _387  and  _390
REMARK  147  A    between atoms: _393  and  _395
REMARK  148  A    between atoms: _395  and  _396
REMARK  149  A    between atoms: _395  and  _398
REMARK  150  A    between atoms: _398  and  _399
REMARK  151  A    between atoms: _399  and  _400
REMARK  152  A    between atoms: _405  and  _407
REMARK  153  A    between atoms: _407  and  _408
REMARK  154  A    between atoms: _407  and  _410
REMARK  155  A    between atoms: _410  and  _411
REMARK  156  A    between atoms: _417  and  _419
REMARK  157  A    between atoms: _419  and  _420
REMARK  158  A    between atoms: _419  and  _422
REMARK  159  A    between atoms: _422  and  _423
REMARK  160  A    between atoms: _423  and  _424
REMARK  161  A    between atoms: _424  and  _425
REMARK  162  A    between atoms: _434  and  _436
REMARK  163  A    between atoms: _436  and  _437
REMARK  164  A    between atoms: _436  and  _439
REMARK  165  A    between atoms: _439  and  _440
REMARK  166  A    between atoms: _440  and  _441
REMARK  167  A    between atoms: _444  and  _445
REMARK  168  A    between atoms: _450  and  _452
REMARK  169  A    between atoms: _452  and  _453
REMARK  170  A    between atoms: _452  and  _455
REMARK  171  A    between atoms: _455  and  _456
REMARK  172  A    between atoms: _456  and  _457
REMARK  173  A    between atoms: _459  and  _461
REMARK  174  A    between atoms: _461  and  _462
REMARK  175  A    between atoms: _464  and  _466
REMARK  176  A    between atoms: _466  and  _467
REMARK  177  A    between atoms: _466  and  _469
REMARK  178  A    between atoms: _472  and  _474
REMARK  179  A    between atoms: _474  and  _475
REMARK  180  A    between atoms: _474  and  _477
REMARK  181  A    between atoms: _477  and  _478
REMARK  182  A    between atoms: _488  and  _490
REMARK  183  A    between atoms: _490  and  _491
REMARK  184  A    between atoms: _493  and  _495
REMARK  185  A    between atoms: _495  and  _496
REMARK  186  A    between atoms: _495  and  _498
REMARK  187  A    between atoms: _498  and  _499
REMARK  188  A    between atoms: _509  and  _511
REMARK  189  A    between atoms: _511  and  _512
REMARK                            x       y       z     vdW  Elec       q    Type
REMARK                         _______ _______ _______ _____ _____    ______ ____
ROOT
ATOM      1  O   HOH     1      19.395  22.987  30.169  0.00  0.00    +0.000 OA
ENDROOT
TORSDOF 0
REMARK  Name = ../refined-set-2016/2gh9/2gh9_pocket.pdb
REMARK  189 active torsions:
REMARK  status: ('A' for Active; 'I' for Inactive)
REMARK    1  A    between atoms: _1  and  _3
REMARK    2  A    between atoms: _3  and  _4
REMARK    3  A    between atoms: _3  and  _6
REMARK    4  A    between atoms: _6  and  _7
REMARK    5  A    between atoms: _10  and  _12
REMARK    6  A    between atoms: _12  and  _13
REMARK    7  A    between atoms: _12  and  _15
REMARK    8  A    between atoms: _15  and  _16
REMARK    9  A    between atoms: _21  and  _23
REMARK   10  A    between atoms: _23  and  _24
REMARK   11  A    between atoms: _23  and  _26
REMARK   12  A    between atoms: _26  and  _27
REMARK   13  A    between atoms: _33  and  _35
REMARK   14  A    between atoms: _35  and  _36
REMARK   15  A    between atoms: _38  and  _40
REMARK   16  A    between atoms: _40  and  _41
REMARK   17  A    between atoms: _40  and  _43
REMARK   18  A    between atoms: _43  and  _44
REMARK   19  A    between atoms: _44  and  _45
REMARK   20  A    between atoms: _48  and  _50
REMARK   21  A    between atoms: _50  and  _51
REMARK   22  A    between atoms: _50  and  _53
REMARK   23  A    between atoms: _57  and  _58
REMARK   24  A    between atoms: _63  and  _65
REMARK   25  A    between atoms: _65  and  _66
REMARK   26  A    between atoms: _65  and  _68
REMARK   27  A    between atoms: _68  and  _69
REMARK   28  A    between atoms: _75  and  _77
REMARK   29  A    between atoms: _77  and  _78
REMARK   30  A    between atoms: _81  and  _83
REMARK   31  A    between atoms: _83  and  _84
REMARK   32  A    between atoms: _83  and  _86
REMARK   33  A    between atoms: _86  and  _87
REMARK   34  A    between atoms: _87  and  _88
REMARK   35  A    between atoms: _91  and  _93
REMARK   36  A    between atoms: _93  and  _94
REMARK   37  A    between atoms: _93  and  _96
REMARK   38  A    between atoms: _96  and  _97
REMARK   39  A    between atoms: _100  and  _102
REMARK   40  A    between atoms: _102  and  _103
REMARK   41  A    between atoms: _102  and  _105
REMARK   42  A    between atoms: _105  and  _106
REMARK   43  A    between atoms: _106  and  _107
REMARK   44  A    between atoms: _107  and  _108
REMARK   45  A    between atoms: _108  and  _109
REMARK   46  A    between atoms: _113  and  _115
REMARK   47  A    between atoms: _115  and  _116
REMARK   48  A    between atoms: _115  and  _118
REMARK   49  A    between atoms: _118  and  _119
REMARK   50  A    between atoms: _122  and  _124
REMARK   51  A    between atoms: _124  and  _125
REMARK   52  A    between atoms: _124  and  _127
REMARK   53  A    between atoms: _131  and  _132
REMARK   54  A    between atoms: _137  and  _139
REMARK   55  A    between atoms: _139  and  _140
REMARK   56  A    between atoms: _139  and  _142
REMARK   57  A    between atoms: _142  and  _143
REMARK   58  A    between atoms: _148  and  _150
REMARK   59  A    between atoms: _150  and  _151
REMARK   60  A    between atoms: _150  and  _153
REMARK   61  A    between atoms: _153  and  _154
REMARK   62  A    between atoms: _157  and  _159
REMARK   63  A    between atoms: _159  and  _160
REMARK   64  A    between atoms: _159  and  _162
REMARK   65  A    between atoms: _162  and  _163
REMARK   66  A    between atoms: _173  and  _175
REMARK   67  A    between atoms: _175  and  _176
REMARK   68  A    between atoms: _175  and  _178
REMARK   69  A    between atoms: _181  and  _183
REMARK   70  A    between atoms: _183  and  _184
REMARK   71  A    between atoms: _183  and  _186
REMARK   72  A    between atoms: _186  and  _187
REMARK   73  A    between atoms: _187  and  _188
REMARK   74  A    between atoms: _191  and  _193
REMARK   75  A    between atoms: _193  and  _194
REMARK   76  A    between atoms: _193  and  _196
REMARK   77  A    between atoms: _196  and  _197
REMARK   78  A    between atoms: _197  and  _198
REMARK   79  A    between atoms: _201  and  _203
REMARK   80  A    between atoms: _203  and  _204
REMARK   81  A    between atoms: _203  and  _206
REMARK   82  A    between atoms: _206  and  _207
REMARK   83  A    between atoms: _209  and  _211
REMARK   84  A    between atoms: _211  and  _212
REMARK   85  A    between atoms: _211  and  _214
REMARK   86  A    between atoms: _217  and  _219
REMARK   87  A    between atoms: _219  and  _220
REMARK   88  A    between atoms: _219  and  _222
REMARK   89  A    between atoms: _222  and  _223
REMARK   90  A    between atoms: _228  and  _230
REMARK   91  A    between atoms: _230  and  _231
REMARK   92  A    between atoms: _233  and  _235
REMARK   93  A    between atoms: _235  and  _236
REMARK   94  A    between atoms: _235  and  _238
REMARK   95  A    between atoms: _238  and  _239
REMARK   96  A    between atoms: _243  and  _244
REMARK   97  A    between atoms: _249  and  _251
REMARK   98  A    between atoms: _251  and  _252
REMARK   99  A    between atoms: _251  and  _254
REMARK  100  A    between atoms: _254  and  _255
REMARK  101  A    between atoms: _260  and  _261
REMARK  102  A    between atoms: _263  and  _265
REMARK  103  A    between atoms: _265  and  _266
REMARK  104  A    between atoms: _265  and  _268
REMARK  105  A    between atoms: _268  and  _269
REMARK  106  A    between atoms: _275  and  _277
REMARK  107  A    between atoms: _277  and  _278
REMARK  108  A    between atoms: _277  and  _280
REMARK  109  A    between atoms: _280  and  _281
REMARK  110  A    between atoms: _286  and  _288
REMARK  111  A    between atoms: _288  and  _289
REMARK  112  A    between atoms: _288  and  _291
REMARK  113  A    between atoms: _291  and  _292
REMARK  114  A    between atoms: _297  and  _298
REMARK  115  A    between atoms: _300  and  _302
REMARK  116  A    between atoms: _302  and  _303
REMARK  117  A    between atoms: _305  and  _307
REMARK  118  A    between atoms: _307  and  _308
REMARK  119  A    between atoms: _307  and  _310
REMARK  120  A    between atoms: _310  and  _311
REMARK  121  A    between atoms: _314  and  _316
REMARK  122  A    between atoms: _316  and  _317
REMARK  123  A    between atoms: _316  and  _319
REMARK  124  A    between atoms: _319  and  _320
REMARK  125  A    between atoms: _325  and  _327
REMARK  126  A    between atoms: _327  and  _328
REMARK  127  A    between atoms: _331  and  _332
REMARK  128  A    between atoms: _337  and  _339
REMARK  129  A    between atoms: _339  and  _340
REMARK  130  A    between atoms: _339  and  _342
REMARK  131  A    between atoms: _342  and  _343
REMARK  132  A    between atoms: _353  and  _355
REMARK  133  A    between atoms: _355  and  _356
REMARK  134  A    between atoms: _359  and  _361
REMARK  135  A    between atoms: _361  and  _362
REMARK  136  A    between atoms: _361  and  _364
REMARK  137  A    between atoms: _364  and  _365
REMARK  138  A    between atoms: _371  and  _373
REMARK  139  A    between atoms: _373  and  _374
REMARK  140  A    between atoms: _373  and  _376
REMARK  141  A    between atoms: _376  and  _377
REMARK  142  A    between atoms: _380  and  _382
REMARK  143  A    between atoms: _382  and  _383
REMARK  144  A    between atoms: _385  and  _387
REMARK  145  A    between atoms: _387  and  _388
REMARK  146  A    between atoms: _387  and  _390
REMARK  147  A    between atoms: _393  and  _395
REMARK  148  A    between atoms: _395  and  _396
REMARK  149  A    between atoms: _395  and  _398
REMARK  150  A    between atoms: _398  and  _399
REMARK  151  A    between atoms: _399  and  _400
REMARK  152  A    between atoms: _405  and  _407
REMARK  153  A    between atoms: _407  and  _408
REMARK  154  A    between atoms: _407  and  _410
REMARK  155  A    between atoms: _410  and  _411
REMARK  156  A    between atoms: _417  and  _419
REMARK  157  A    between atoms: _419  and  _420
REMARK  158  A    between atoms: _419  and  _422
REMARK  159  A    between atoms: _422  and  _423
REMARK  160  A    between atoms: _423  and  _424
REMARK  161  A    between atoms: _424  and  _425
REMARK  162  A    between atoms: _434  and  _436
REMARK  163  A    between atoms: _436  and  _437
REMARK  164  A    between atoms: _436  and  _439
REMARK  165  A    between atoms: _439  and  _440
REMARK  166  A    between atoms: _440  and  _441
REMARK  167  A    between atoms: _444  and  _445
REMARK  168  A    between atoms: _450  and  _452
REMARK  169  A    between atoms: _452  and  _453
REMARK  170  A    between atoms: _452  and  _455
REMARK  171  A    between atoms: _455  and  _456
REMARK  172  A    between atoms: _456  and  _457
REMARK  173  A    between atoms: _459  and  _461
REMARK  174  A    between atoms: _461  and  _462
REMARK  175  A    between atoms: _464  and  _466
REMARK  176  A    between atoms: _466  and  _467
REMARK  177  A    between atoms: _466  and  _469
REMARK  178  A    between atoms: _472  and  _474
REMARK  179  A    between atoms: _474  and  _475
REMARK  180  A    between atoms: _474  and  _477
REMARK  181  A    between atoms: _477  and  _478
REMARK  182  A    between atoms: _488  and  _490
REMARK  183  A    between atoms: _490  and  _491
REMARK  184  A    between atoms: _493  and  _495
REMARK  185  A    between atoms: _495  and  _496
REMARK  186  A    between atoms: _495  and  _498
REMARK  187  A    between atoms: _498  and  _499
REMARK  188  A    between atoms: _509  and  _511
REMARK  189  A    between atoms: _511  and  _512
REMARK                            x       y       z     vdW  Elec       q    Type
REMARK                         _______ _______ _______ _____ _____    ______ ____
ROOT
ATOM      1  O   HOH     1      23.722  23.151  22.509  0.00  0.00    +0.000 OA
ENDROOT
TORSDOF 0
REMARK  Name = ../refined-set-2016/2gh9/2gh9_pocket.pdb
REMARK  189 active torsions:
REMARK  status: ('A' for Active; 'I' for Inactive)
REMARK    1  A    between atoms: _1  and  _3
REMARK    2  A    between atoms: _3  and  _4
REMARK    3  A    between atoms: _3  and  _6
REMARK    4  A    between atoms: _6  and  _7
REMARK    5  A    between atoms: _10  and  _12
REMARK    6  A    between atoms: _12  and  _13
REMARK    7  A    between atoms: _12  and  _15
REMARK    8  A    between atoms: _15  and  _16
REMARK    9  A    between atoms: _21  and  _23
REMARK   10  A    between atoms: _23  and  _24
REMARK   11  A    between atoms: _23  and  _26
REMARK   12  A    between atoms: _26  and  _27
REMARK   13  A    between atoms: _33  and  _35
REMARK   14  A    between atoms: _35  and  _36
REMARK   15  A    between atoms: _38  and  _40
REMARK   16  A    between atoms: _40  and  _41
REMARK   17  A    between atoms: _40  and  _43
REMARK   18  A    between atoms: _43  and  _44
REMARK   19  A    between atoms: _44  and  _45
REMARK   20  A    between atoms: _48  and  _50
REMARK   21  A    between atoms: _50  and  _51
REMARK   22  A    between atoms: _50  and  _53
REMARK   23  A    between atoms: _57  and  _58
REMARK   24  A    between atoms: _63  and  _65
REMARK   25  A    between atoms: _65  and  _66
REMARK   26  A    between atoms: _65  and  _68
REMARK   27  A    between atoms: _68  and  _69
REMARK   28  A    between atoms: _75  and  _77
REMARK   29  A    between atoms: _77  and  _78
REMARK   30  A    between atoms: _81  and  _83
REMARK   31  A    between atoms: _83  and  _84
REMARK   32  A    between atoms: _83  and  _86
REMARK   33  A    between atoms: _86  and  _87
REMARK   34  A    between atoms: _87  and  _88
REMARK   35  A    between atoms: _91  and  _93
REMARK   36  A    between atoms: _93  and  _94
REMARK   37  A    between atoms: _93  and  _96
REMARK   38  A    between atoms: _96  and  _97
REMARK   39  A    between atoms: _100  and  _102
REMARK   40  A    between atoms: _102  and  _103
REMARK   41  A    between atoms: _102  and  _105
REMARK   42  A    between atoms: _105  and  _106
REMARK   43  A    between atoms: _106  and  _107
REMARK   44  A    between atoms: _107  and  _108
REMARK   45  A    between atoms: _108  and  _109
REMARK   46  A    between atoms: _113  and  _115
REMARK   47  A    between atoms: _115  and  _116
REMARK   48  A    between atoms: _115  and  _118
REMARK   49  A    between atoms: _118  and  _119
REMARK   50  A    between atoms: _122  and  _124
REMARK   51  A    between atoms: _124  and  _125
REMARK   52  A    between atoms: _124  and  _127
REMARK   53  A    between atoms: _131  and  _132
REMARK   54  A    between atoms: _137  and  _139
REMARK   55  A    between atoms: _139  and  _140
REMARK   56  A    between atoms: _139  and  _142
REMARK   57  A    between atoms: _142  and  _143
REMARK   58  A    between atoms: _148  and  _150
REMARK   59  A    between atoms: _150  and  _151
REMARK   60  A    between atoms: _150  and  _153
REMARK   61  A    between atoms: _153  and  _154
REMARK   62  A    between atoms: _157  and  _159
REMARK   63  A    between atoms: _159  and  _160
REMARK   64  A    between atoms: _159  and  _162
REMARK   65  A    between atoms: _162  and  _163
REMARK   66  A    between atoms: _173  and  _175
REMARK   67  A    between atoms: _175  and  _176
REMARK   68  A    between atoms: _175  and  _178
REMARK   69  A    between atoms: _181  and  _183
REMARK   70  A    between atoms: _183  and  _184
REMARK   71  A    between atoms: _183  and  _186
REMARK   72  A    between atoms: _186  and  _187
REMARK   73  A    between atoms: _187  and  _188
REMARK   74  A    between atoms: _191  and  _193
REMARK   75  A    between atoms: _193  and  _194
REMARK   76  A    between atoms: _193  and  _196
REMARK   77  A    between atoms: _196  and  _197
REMARK   78  A    between atoms: _197  and  _198
REMARK   79  A    between atoms: _201  and  _203
REMARK   80  A    between atoms: _203  and  _204
REMARK   81  A    between atoms: _203  and  _206
REMARK   82  A    between atoms: _206  and  _207
REMARK   83  A    between atoms: _209  and  _211
REMARK   84  A    between atoms: _211  and  _212
REMARK   85  A    between atoms: _211  and  _214
REMARK   86  A    between atoms: _217  and  _219
REMARK   87  A    between atoms: _219  and  _220
REMARK   88  A    between atoms: _219  and  _222
REMARK   89  A    between atoms: _222  and  _223
REMARK   90  A    between atoms: _228  and  _230
REMARK   91  A    between atoms: _230  and  _231
REMARK   92  A    between atoms: _233  and  _235
REMARK   93  A    between atoms: _235  and  _236
REMARK   94  A    between atoms: _235  and  _238
REMARK   95  A    between atoms: _238  and  _239
REMARK   96  A    between atoms: _243  and  _244
REMARK   97  A    between atoms: _249  and  _251
REMARK   98  A    between atoms: _251  and  _252
REMARK   99  A    between atoms: _251  and  _254
REMARK  100  A    between atoms: _254  and  _255
REMARK  101  A    between atoms: _260  and  _261
REMARK  102  A    between atoms: _263  and  _265
REMARK  103  A    between atoms: _265  and  _266
REMARK  104  A    between atoms: _265  and  _268
REMARK  105  A    between atoms: _268  and  _269
REMARK  106  A    between atoms: _275  and  _277
REMARK  107  A    between atoms: _277  and  _278
REMARK  108  A    between atoms: _277  and  _280
REMARK  109  A    between atoms: _280  and  _281
REMARK  110  A    between atoms: _286  and  _288
REMARK  111  A    between atoms: _288  and  _289
REMARK  112  A    between atoms: _288  and  _291
REMARK  113  A    between atoms: _291  and  _292
REMARK  114  A    between atoms: _297  and  _298
REMARK  115  A    between atoms: _300  and  _302
REMARK  116  A    between atoms: _302  and  _303
REMARK  117  A    between atoms: _305  and  _307
REMARK  118  A    between atoms: _307  and  _308
REMARK  119  A    between atoms: _307  and  _310
REMARK  120  A    between atoms: _310  and  _311
REMARK  121  A    between atoms: _314  and  _316
REMARK  122  A    between atoms: _316  and  _317
REMARK  123  A    between atoms: _316  and  _319
REMARK  124  A    between atoms: _319  and  _320
REMARK  125  A    between atoms: _325  and  _327
REMARK  126  A    between atoms: _327  and  _328
REMARK  127  A    between atoms: _331  and  _332
REMARK  128  A    between atoms: _337  and  _339
REMARK  129  A    between atoms: _339  and  _340
REMARK  130  A    between atoms: _339  and  _342
REMARK  131  A    between atoms: _342  and  _343
REMARK  132  A    between atoms: _353  and  _355
REMARK  133  A    between atoms: _355  and  _356
REMARK  134  A    between atoms: _359  and  _361
REMARK  135  A    between atoms: _361  and  _362
REMARK  136  A    between atoms: _361  and  _364
REMARK  137  A    between atoms: _364  and  _365
REMARK  138  A    between atoms: _371  and  _373
REMARK  139  A    between atoms: _373  and  _374
REMARK  140  A    between atoms: _373  and  _376
REMARK  141  A    between atoms: _376  and  _377
REMARK  142  A    between atoms: _380  and  _382
REMARK  143  A    between atoms: _382  and  _383
REMARK  144  A    between atoms: _385  and  _387
REMARK  145  A    between atoms: _387  and  _388
REMARK  146  A    between atoms: _387  and  _390
REMARK  147  A    between atoms: _393  and  _395
REMARK  148  A    between atoms: _395  and  _396
REMARK  149  A    between atoms: _395  and  _398
REMARK  150  A    between atoms: _398  and  _399
REMARK  151  A    between atoms: _399  and  _400
REMARK  152  A    between atoms: _405  and  _407
REMARK  153  A    between atoms: _407  and  _408
REMARK  154  A    between atoms: _407  and  _410
REMARK  155  A    between atoms: _410  and  _411
REMARK  156  A    between atoms: _417  and  _419
REMARK  157  A    between atoms: _419  and  _420
REMARK  158  A    between atoms: _419  and  _422
REMARK  159  A    between atoms: _422  and  _423
REMARK  160  A    between atoms: _423  and  _424
REMARK  161  A    between atoms: _424  and  _425
REMARK  162  A    between atoms: _434  and  _436
REMARK  163  A    between atoms: _436  and  _437
REMARK  164  A    between atoms: _436  and  _439
REMARK  165  A    between atoms: _439  and  _440
REMARK  166  A    between atoms: _440  and  _441
REMARK  167  A    between atoms: _444  and  _445
REMARK  168  A    between atoms: _450  and  _452
REMARK  169  A    between atoms: _452  and  _453
REMARK  170  A    between atoms: _452  and  _455
REMARK  171  A    between atoms: _455  and  _456
REMARK  172  A    between atoms: _456  and  _457
REMARK  173  A    between atoms: _459  and  _461
REMARK  174  A    between atoms: _461  and  _462
REMARK  175  A    between atoms: _464  and  _466
REMARK  176  A    between atoms: _466  and  _467
REMARK  177  A    between atoms: _466  and  _469
REMARK  178  A    between atoms: _472  and  _474
REMARK  179  A    between atoms: _474  and  _475
REMARK  180  A    between atoms: _474  and  _477
REMARK  181  A    between atoms: _477  and  _478
REMARK  182  A    between atoms: _488  and  _490
REMARK  183  A    between atoms: _490  and  _491
REMARK  184  A    between atoms: _493  and  _495
REMARK  185  A    between atoms: _495  and  _496
REMARK  186  A    between atoms: _495  and  _498
REMARK  187  A    between atoms: _498  and  _499
REMARK  188  A    between atoms: _509  and  _511
REMARK  189  A    between atoms: _511  and  _512
REMARK                            x       y       z     vdW  Elec       q    Type
REMARK                         _______ _______ _______ _____ _____    ______ ____
ROOT
ATOM      1  O   HOH     1      23.676  19.157  27.110  0.00  0.00    +0.000 OA
ENDROOT
TORSDOF 0
REMARK  Name = ../refined-set-2016/2gh9/2gh9_pocket.pdb
REMARK  189 active torsions:
REMARK  status: ('A' for Active; 'I' for Inactive)
REMARK    1  A    between atoms: _1  and  _3
REMARK    2  A    between atoms: _3  and  _4
REMARK    3  A    between atoms: _3  and  _6
REMARK    4  A    between atoms: _6  and  _7
REMARK    5  A    between atoms: _10  and  _12
REMARK    6  A    between atoms: _12  and  _13
REMARK    7  A    between atoms: _12  and  _15
REMARK    8  A    between atoms: _15  and  _16
REMARK    9  A    between atoms: _21  and  _23
REMARK   10  A    between atoms: _23  and  _24
REMARK   11  A    between atoms: _23  and  _26
REMARK   12  A    between atoms: _26  and  _27
REMARK   13  A    between atoms: _33  and  _35
REMARK   14  A    between atoms: _35  and  _36
REMARK   15  A    between atoms: _38  and  _40
REMARK   16  A    between atoms: _40  and  _41
REMARK   17  A    between atoms: _40  and  _43
REMARK   18  A    between atoms: _43  and  _44
REMARK   19  A    between atoms: _44  and  _45
REMARK   20  A    between atoms: _48  and  _50
REMARK   21  A    between atoms: _50  and  _51
REMARK   22  A    between atoms: _50  and  _53
REMARK   23  A    between atoms: _57  and  _58
REMARK   24  A    between atoms: _63  and  _65
REMARK   25  A    between atoms: _65  and  _66
REMARK   26  A    between atoms: _65  and  _68
REMARK   27  A    between atoms: _68  and  _69
REMARK   28  A    between atoms: _75  and  _77
REMARK   29  A    between atoms: _77  and  _78
REMARK   30  A    between atoms: _81  and  _83
REMARK   31  A    between atoms: _83  and  _84
REMARK   32  A    between atoms: _83  and  _86
REMARK   33  A    between atoms: _86  and  _87
REMARK   34  A    between atoms: _87  and  _88
REMARK   35  A    between atoms: _91  and  _93
REMARK   36  A    between atoms: _93  and  _94
REMARK   37  A    between atoms: _93  and  _96
REMARK   38  A    between atoms: _96  and  _97
REMARK   39  A    between atoms: _100  and  _102
REMARK   40  A    between atoms: _102  and  _103
REMARK   41  A    between atoms: _102  and  _105
REMARK   42  A    between atoms: _105  and  _106
REMARK   43  A    between atoms: _106  and  _107
REMARK   44  A    between atoms: _107  and  _108
REMARK   45  A    between atoms: _108  and  _109
REMARK   46  A    between atoms: _113  and  _115
REMARK   47  A    between atoms: _115  and  _116
REMARK   48  A    between atoms: _115  and  _118
REMARK   49  A    between atoms: _118  and  _119
REMARK   50  A    between atoms: _122  and  _124
REMARK   51  A    between atoms: _124  and  _125
REMARK   52  A    between atoms: _124  and  _127
REMARK   53  A    between atoms: _131  and  _132
REMARK   54  A    between atoms: _137  and  _139
REMARK   55  A    between atoms: _139  and  _140
REMARK   56  A    between atoms: _139  and  _142
REMARK   57  A    between atoms: _142  and  _143
REMARK   58  A    between atoms: _148  and  _150
REMARK   59  A    between atoms: _150  and  _151
REMARK   60  A    between atoms: _150  and  _153
REMARK   61  A    between atoms: _153  and  _154
REMARK   62  A    between atoms: _157  and  _159
REMARK   63  A    between atoms: _159  and  _160
REMARK   64  A    between atoms: _159  and  _162
REMARK   65  A    between atoms: _162  and  _163
REMARK   66  A    between atoms: _173  and  _175
REMARK   67  A    between atoms: _175  and  _176
REMARK   68  A    between atoms: _175  and  _178
REMARK   69  A    between atoms: _181  and  _183
REMARK   70  A    between atoms: _183  and  _184
REMARK   71  A    between atoms: _183  and  _186
REMARK   72  A    between atoms: _186  and  _187
REMARK   73  A    between atoms: _187  and  _188
REMARK   74  A    between atoms: _191  and  _193
REMARK   75  A    between atoms: _193  and  _194
REMARK   76  A    between atoms: _193  and  _196
REMARK   77  A    between atoms: _196  and  _197
REMARK   78  A    between atoms: _197  and  _198
REMARK   79  A    between atoms: _201  and  _203
REMARK   80  A    between atoms: _203  and  _204
REMARK   81  A    between atoms: _203  and  _206
REMARK   82  A    between atoms: _206  and  _207
REMARK   83  A    between atoms: _209  and  _211
REMARK   84  A    between atoms: _211  and  _212
REMARK   85  A    between atoms: _211  and  _214
REMARK   86  A    between atoms: _217  and  _219
REMARK   87  A    between atoms: _219  and  _220
REMARK   88  A    between atoms: _219  and  _222
REMARK   89  A    between atoms: _222  and  _223
REMARK   90  A    between atoms: _228  and  _230
REMARK   91  A    between atoms: _230  and  _231
REMARK   92  A    between atoms: _233  and  _235
REMARK   93  A    between atoms: _235  and  _236
REMARK   94  A    between atoms: _235  and  _238
REMARK   95  A    between atoms: _238  and  _239
REMARK   96  A    between atoms: _243  and  _244
REMARK   97  A    between atoms: _249  and  _251
REMARK   98  A    between atoms: _251  and  _252
REMARK   99  A    between atoms: _251  and  _254
REMARK  100  A    between atoms: _254  and  _255
REMARK  101  A    between atoms: _260  and  _261
REMARK  102  A    between atoms: _263  and  _265
REMARK  103  A    between atoms: _265  and  _266
REMARK  104  A    between atoms: _265  and  _268
REMARK  105  A    between atoms: _268  and  _269
REMARK  106  A    between atoms: _275  and  _277
REMARK  107  A    between atoms: _277  and  _278
REMARK  108  A    between atoms: _277  and  _280
REMARK  109  A    between atoms: _280  and  _281
REMARK  110  A    between atoms: _286  and  _288
REMARK  111  A    between atoms: _288  and  _289
REMARK  112  A    between atoms: _288  and  _291
REMARK  113  A    between atoms: _291  and  _292
REMARK  114  A    between atoms: _297  and  _298
REMARK  115  A    between atoms: _300  and  _302
REMARK  116  A    between atoms: _302  and  _303
REMARK  117  A    between atoms: _305  and  _307
REMARK  118  A    between atoms: _307  and  _308
REMARK  119  A    between atoms: _307  and  _310
REMARK  120  A    between atoms: _310  and  _311
REMARK  121  A    between atoms: _314  and  _316
REMARK  122  A    between atoms: _316  and  _317
REMARK  123  A    between atoms: _316  and  _319
REMARK  124  A    between atoms: _319  and  _320
REMARK  125  A    between atoms: _325  and  _327
REMARK  126  A    between atoms: _327  and  _328
REMARK  127  A    between atoms: _331  and  _332
REMARK  128  A    between atoms: _337  and  _339
REMARK  129  A    between atoms: _339  and  _340
REMARK  130  A    between atoms: _339  and  _342
REMARK  131  A    between atoms: _342  and  _343
REMARK  132  A    between atoms: _353  and  _355
REMARK  133  A    between atoms: _355  and  _356
REMARK  134  A    between atoms: _359  and  _361
REMARK  135  A    between atoms: _361  and  _362
REMARK  136  A    between atoms: _361  and  _364
REMARK  137  A    between atoms: _364  and  _365
REMARK  138  A    between atoms: _371  and  _373
REMARK  139  A    between atoms: _373  and  _374
REMARK  140  A    between atoms: _373  and  _376
REMARK  141  A    between atoms: _376  and  _377
REMARK  142  A    between atoms: _380  and  _382
REMARK  143  A    between atoms: _382  and  _383
REMARK  144  A    between atoms: _385  and  _387
REMARK  145  A    between atoms: _387  and  _388
REMARK  146  A    between atoms: _387  and  _390
REMARK  147  A    between atoms: _393  and  _395
REMARK  148  A    between atoms: _395  and  _396
REMARK  149  A    between atoms: _395  and  _398
REMARK  150  A    between atoms: _398  and  _399
REMARK  151  A    between atoms: _399  and  _400
REMARK  152  A    between atoms: _405  and  _407
REMARK  153  A    between atoms: _407  and  _408
REMARK  154  A    between atoms: _407  and  _410
REMARK  155  A    between atoms: _410  and  _411
REMARK  156  A    between atoms: _417  and  _419
REMARK  157  A    between atoms: _419  and  _420
REMARK  158  A    between atoms: _419  and  _422
REMARK  159  A    between atoms: _422  and  _423
REMARK  160  A    between atoms: _423  and  _424
REMARK  161  A    between atoms: _424  and  _425
REMARK  162  A    between atoms: _434  and  _436
REMARK  163  A    between atoms: _436  and  _437
REMARK  164  A    between atoms: _436  and  _439
REMARK  165  A    between atoms: _439  and  _440
REMARK  166  A    between atoms: _440  and  _441
REMARK  167  A    between atoms: _444  and  _445
REMARK  168  A    between atoms: _450  and  _452
REMARK  169  A    between atoms: _452  and  _453
REMARK  170  A    between atoms: _452  and  _455
REMARK  171  A    between atoms: _455  and  _456
REMARK  172  A    between atoms: _456  and  _457
REMARK  173  A    between atoms: _459  and  _461
REMARK  174  A    between atoms: _461  and  _462
REMARK  175  A    between atoms: _464  and  _466
REMARK  176  A    between atoms: _466  and  _467
REMARK  177  A    between atoms: _466  and  _469
REMARK  178  A    between atoms: _472  and  _474
REMARK  179  A    between atoms: _474  and  _475
REMARK  180  A    between atoms: _474  and  _477
REMARK  181  A    between atoms: _477  and  _478
REMARK  182  A    between atoms: _488  and  _490
REMARK  183  A    between atoms: _490  and  _491
REMARK  184  A    between atoms: _493  and  _495
REMARK  185  A    between atoms: _495  and  _496
REMARK  186  A    between atoms: _495  and  _498
REMARK  187  A    between atoms: _498  and  _499
REMARK  188  A    between atoms: _509  and  _511
REMARK  189  A    between atoms: _511  and  _512
REMARK                            x       y       z     vdW  Elec       q    Type
REMARK                         _______ _______ _______ _____ _____    ______ ____
ROOT
ATOM      1  O   HOH     1      33.891  18.670  28.951  0.00  0.00    +0.000 OA
ENDROOT
TORSDOF 0
REMARK  Name = ../refined-set-2016/2gh9/2gh9_pocket.pdb
REMARK  189 active torsions:
REMARK  status: ('A' for Active; 'I' for Inactive)
REMARK    1  A    between atoms: _1  and  _3
REMARK    2  A    between atoms: _3  and  _4
REMARK    3  A    between atoms: _3  and  _6
REMARK    4  A    between atoms: _6  and  _7
REMARK    5  A    between atoms: _10  and  _12
REMARK    6  A    between atoms: _12  and  _13
REMARK    7  A    between atoms: _12  and  _15
REMARK    8  A    between atoms: _15  and  _16
REMARK    9  A    between atoms: _21  and  _23
REMARK   10  A    between atoms: _23  and  _24
REMARK   11  A    between atoms: _23  and  _26
REMARK   12  A    between atoms: _26  and  _27
REMARK   13  A    between atoms: _33  and  _35
REMARK   14  A    between atoms: _35  and  _36
REMARK   15  A    between atoms: _38  and  _40
REMARK   16  A    between atoms: _40  and  _41
REMARK   17  A    between atoms: _40  and  _43
REMARK   18  A    between atoms: _43  and  _44
REMARK   19  A    between atoms: _44  and  _45
REMARK   20  A    between atoms: _48  and  _50
REMARK   21  A    between atoms: _50  and  _51
REMARK   22  A    between atoms: _50  and  _53
REMARK   23  A    between atoms: _57  and  _58
REMARK   24  A    between atoms: _63  and  _65
REMARK   25  A    between atoms: _65  and  _66
REMARK   26  A    between atoms: _65  and  _68
REMARK   27  A    between atoms: _68  and  _69
REMARK   28  A    between atoms: _75  and  _77
REMARK   29  A    between atoms: _77  and  _78
REMARK   30  A    between atoms: _81  and  _83
REMARK   31  A    between atoms: _83  and  _84
REMARK   32  A    between atoms: _83  and  _86
REMARK   33  A    between atoms: _86  and  _87
REMARK   34  A    between atoms: _87  and  _88
REMARK   35  A    between atoms: _91  and  _93
REMARK   36  A    between atoms: _93  and  _94
REMARK   37  A    between atoms: _93  and  _96
REMARK   38  A    between atoms: _96  and  _97
REMARK   39  A    between atoms: _100  and  _102
REMARK   40  A    between atoms: _102  and  _103
REMARK   41  A    between atoms: _102  and  _105
REMARK   42  A    between atoms: _105  and  _106
REMARK   43  A    between atoms: _106  and  _107
REMARK   44  A    between atoms: _107  and  _108
REMARK   45  A    between atoms: _108  and  _109
REMARK   46  A    between atoms: _113  and  _115
REMARK   47  A    between atoms: _115  and  _116
REMARK   48  A    between atoms: _115  and  _118
REMARK   49  A    between atoms: _118  and  _119
REMARK   50  A    between atoms: _122  and  _124
REMARK   51  A    between atoms: _124  and  _125
REMARK   52  A    between atoms: _124  and  _127
REMARK   53  A    between atoms: _131  and  _132
REMARK   54  A    between atoms: _137  and  _139
REMARK   55  A    between atoms: _139  and  _140
REMARK   56  A    between atoms: _139  and  _142
REMARK   57  A    between atoms: _142  and  _143
REMARK   58  A    between atoms: _148  and  _150
REMARK   59  A    between atoms: _150  and  _151
REMARK   60  A    between atoms: _150  and  _153
REMARK   61  A    between atoms: _153  and  _154
REMARK   62  A    between atoms: _157  and  _159
REMARK   63  A    between atoms: _159  and  _160
REMARK   64  A    between atoms: _159  and  _162
REMARK   65  A    between atoms: _162  and  _163
REMARK   66  A    between atoms: _173  and  _175
REMARK   67  A    between atoms: _175  and  _176
REMARK   68  A    between atoms: _175  and  _178
REMARK   69  A    between atoms: _181  and  _183
REMARK   70  A    between atoms: _183  and  _184
REMARK   71  A    between atoms: _183  and  _186
REMARK   72  A    between atoms: _186  and  _187
REMARK   73  A    between atoms: _187  and  _188
REMARK   74  A    between atoms: _191  and  _193
REMARK   75  A    between atoms: _193  and  _194
REMARK   76  A    between atoms: _193  and  _196
REMARK   77  A    between atoms: _196  and  _197
REMARK   78  A    between atoms: _197  and  _198
REMARK   79  A    between atoms: _201  and  _203
REMARK   80  A    between atoms: _203  and  _204
REMARK   81  A    between atoms: _203  and  _206
REMARK   82  A    between atoms: _206  and  _207
REMARK   83  A    between atoms: _209  and  _211
REMARK   84  A    between atoms: _211  and  _212
REMARK   85  A    between atoms: _211  and  _214
REMARK   86  A    between atoms: _217  and  _219
REMARK   87  A    between atoms: _219  and  _220
REMARK   88  A    between atoms: _219  and  _222
REMARK   89  A    between atoms: _222  and  _223
REMARK   90  A    between atoms: _228  and  _230
REMARK   91  A    between atoms: _230  and  _231
REMARK   92  A    between atoms: _233  and  _235
REMARK   93  A    between atoms: _235  and  _236
REMARK   94  A    between atoms: _235  and  _238
REMARK   95  A    between atoms: _238  and  _239
REMARK   96  A    between atoms: _243  and  _244
REMARK   97  A    between atoms: _249  and  _251
REMARK   98  A    between atoms: _251  and  _252
REMARK   99  A    between atoms: _251  and  _254
REMARK  100  A    between atoms: _254  and  _255
REMARK  101  A    between atoms: _260  and  _261
REMARK  102  A    between atoms: _263  and  _265
REMARK  103  A    between atoms: _265  and  _266
REMARK  104  A    between atoms: _265  and  _268
REMARK  105  A    between atoms: _268  and  _269
REMARK  106  A    between atoms: _275  and  _277
REMARK  107  A    between atoms: _277  and  _278
REMARK  108  A    between atoms: _277  and  _280
REMARK  109  A    between atoms: _280  and  _281
REMARK  110  A    between atoms: _286  and  _288
REMARK  111  A    between atoms: _288  and  _289
REMARK  112  A    between atoms: _288  and  _291
REMARK  113  A    between atoms: _291  and  _292
REMARK  114  A    between atoms: _297  and  _298
REMARK  115  A    between atoms: _300  and  _302
REMARK  116  A    between atoms: _302  and  _303
REMARK  117  A    between atoms: _305  and  _307
REMARK  118  A    between atoms: _307  and  _308
REMARK  119  A    between atoms: _307  and  _310
REMARK  120  A    between atoms: _310  and  _311
REMARK  121  A    between atoms: _314  and  _316
REMARK  122  A    between atoms: _316  and  _317
REMARK  123  A    between atoms: _316  and  _319
REMARK  124  A    between atoms: _319  and  _320
REMARK  125  A    between atoms: _325  and  _327
REMARK  126  A    between atoms: _327  and  _328
REMARK  127  A    between atoms: _331  and  _332
REMARK  128  A    between atoms: _337  and  _339
REMARK  129  A    between atoms: _339  and  _340
REMARK  130  A    between atoms: _339  and  _342
REMARK  131  A    between atoms: _342  and  _343
REMARK  132  A    between atoms: _353  and  _355
REMARK  133  A    between atoms: _355  and  _356
REMARK  134  A    between atoms: _359  and  _361
REMARK  135  A    between atoms: _361  and  _362
REMARK  136  A    between atoms: _361  and  _364
REMARK  137  A    between atoms: _364  and  _365
REMARK  138  A    between atoms: _371  and  _373
REMARK  139  A    between atoms: _373  and  _374
REMARK  140  A    between atoms: _373  and  _376
REMARK  141  A    between atoms: _376  and  _377
REMARK  142  A    between atoms: _380  and  _382
REMARK  143  A    between atoms: _382  and  _383
REMARK  144  A    between atoms: _385  and  _387
REMARK  145  A    between atoms: _387  and  _388
REMARK  146  A    between atoms: _387  and  _390
REMARK  147  A    between atoms: _393  and  _395
REMARK  148  A    between atoms: _395  and  _396
REMARK  149  A    between atoms: _395  and  _398
REMARK  150  A    between atoms: _398  and  _399
REMARK  151  A    between atoms: _399  and  _400
REMARK  152  A    between atoms: _405  and  _407
REMARK  153  A    between atoms: _407  and  _408
REMARK  154  A    between atoms: _407  and  _410
REMARK  155  A    between atoms: _410  and  _411
REMARK  156  A    between atoms: _417  and  _419
REMARK  157  A    between atoms: _419  and  _420
REMARK  158  A    between atoms: _419  and  _422
REMARK  159  A    between atoms: _422  and  _423
REMARK  160  A    between atoms: _423  and  _424
REMARK  161  A    between atoms: _424  and  _425
REMARK  162  A    between atoms: _434  and  _436
REMARK  163  A    between atoms: _436  and  _437
REMARK  164  A    between atoms: _436  and  _439
REMARK  165  A    between atoms: _439  and  _440
REMARK  166  A    between atoms: _440  and  _441
REMARK  167  A    between atoms: _444  and  _445
REMARK  168  A    between atoms: _450  and  _452
REMARK  169  A    between atoms: _452  and  _453
REMARK  170  A    between atoms: _452  and  _455
REMARK  171  A    between atoms: _455  and  _456
REMARK  172  A    between atoms: _456  and  _457
REMARK  173  A    between atoms: _459  and  _461
REMARK  174  A    between atoms: _461  and  _462
REMARK  175  A    between atoms: _464  and  _466
REMARK  176  A    between atoms: _466  and  _467
REMARK  177  A    between atoms: _466  and  _469
REMARK  178  A    between atoms: _472  and  _474
REMARK  179  A    between atoms: _474  and  _475
REMARK  180  A    between atoms: _474  and  _477
REMARK  181  A    between atoms: _477  and  _478
REMARK  182  A    between atoms: _488  and  _490
REMARK  183  A    between atoms: _490  and  _491
REMARK  184  A    between atoms: _493  and  _495
REMARK  185  A    between atoms: _495  and  _496
REMARK  186  A    between atoms: _495  and  _498
REMARK  187  A    between atoms: _498  and  _499
REMARK  188  A    between atoms: _509  and  _511
REMARK  189  A    between atoms: _511  and  _512
REMARK                            x       y       z     vdW  Elec       q    Type
REMARK                         _______ _______ _______ _____ _____    ______ ____
ROOT
ATOM      1  O   HOH     1      19.943  14.804  10.692  0.00  0.00    +0.000 OA
ENDROOT
TORSDOF 0
REMARK  Name = ../refined-set-2016/2gh9/2gh9_pocket.pdb
REMARK  189 active torsions:
REMARK  status: ('A' for Active; 'I' for Inactive)
REMARK    1  A    between atoms: _1  and  _3
REMARK    2  A    between atoms: _3  and  _4
REMARK    3  A    between atoms: _3  and  _6
REMARK    4  A    between atoms: _6  and  _7
REMARK    5  A    between atoms: _10  and  _12
REMARK    6  A    between atoms: _12  and  _13
REMARK    7  A    between atoms: _12  and  _15
REMARK    8  A    between atoms: _15  and  _16
REMARK    9  A    between atoms: _21  and  _23
REMARK   10  A    between atoms: _23  and  _24
REMARK   11  A    between atoms: _23  and  _26
REMARK   12  A    between atoms: _26  and  _27
REMARK   13  A    between atoms: _33  and  _35
REMARK   14  A    between atoms: _35  and  _36
REMARK   15  A    between atoms: _38  and  _40
REMARK   16  A    between atoms: _40  and  _41
REMARK   17  A    between atoms: _40  and  _43
REMARK   18  A    between atoms: _43  and  _44
REMARK   19  A    between atoms: _44  and  _45
REMARK   20  A    between atoms: _48  and  _50
REMARK   21  A    between atoms: _50  and  _51
REMARK   22  A    between atoms: _50  and  _53
REMARK   23  A    between atoms: _57  and  _58
REMARK   24  A    between atoms: _63  and  _65
REMARK   25  A    between atoms: _65  and  _66
REMARK   26  A    between atoms: _65  and  _68
REMARK   27  A    between atoms: _68  and  _69
REMARK   28  A    between atoms: _75  and  _77
REMARK   29  A    between atoms: _77  and  _78
REMARK   30  A    between atoms: _81  and  _83
REMARK   31  A    between atoms: _83  and  _84
REMARK   32  A    between atoms: _83  and  _86
REMARK   33  A    between atoms: _86  and  _87
REMARK   34  A    between atoms: _87  and  _88
REMARK   35  A    between atoms: _91  and  _93
REMARK   36  A    between atoms: _93  and  _94
REMARK   37  A    between atoms: _93  and  _96
REMARK   38  A    between atoms: _96  and  _97
REMARK   39  A    between atoms: _100  and  _102
REMARK   40  A    between atoms: _102  and  _103
REMARK   41  A    between atoms: _102  and  _105
REMARK   42  A    between atoms: _105  and  _106
REMARK   43  A    between atoms: _106  and  _107
REMARK   44  A    between atoms: _107  and  _108
REMARK   45  A    between atoms: _108  and  _109
REMARK   46  A    between atoms: _113  and  _115
REMARK   47  A    between atoms: _115  and  _116
REMARK   48  A    between atoms: _115  and  _118
REMARK   49  A    between atoms: _118  and  _119
REMARK   50  A    between atoms: _122  and  _124
REMARK   51  A    between atoms: _124  and  _125
REMARK   52  A    between atoms: _124  and  _127
REMARK   53  A    between atoms: _131  and  _132
REMARK   54  A    between atoms: _137  and  _139
REMARK   55  A    between atoms: _139  and  _140
REMARK   56  A    between atoms: _139  and  _142
REMARK   57  A    between atoms: _142  and  _143
REMARK   58  A    between atoms: _148  and  _150
REMARK   59  A    between atoms: _150  and  _151
REMARK   60  A    between atoms: _150  and  _153
REMARK   61  A    between atoms: _153  and  _154
REMARK   62  A    between atoms: _157  and  _159
REMARK   63  A    between atoms: _159  and  _160
REMARK   64  A    between atoms: _159  and  _162
REMARK   65  A    between atoms: _162  and  _163
REMARK   66  A    between atoms: _173  and  _175
REMARK   67  A    between atoms: _175  and  _176
REMARK   68  A    between atoms: _175  and  _178
REMARK   69  A    between atoms: _181  and  _183
REMARK   70  A    between atoms: _183  and  _184
REMARK   71  A    between atoms: _183  and  _186
REMARK   72  A    between atoms: _186  and  _187
REMARK   73  A    between atoms: _187  and  _188
REMARK   74  A    between atoms: _191  and  _193
REMARK   75  A    between atoms: _193  and  _194
REMARK   76  A    between atoms: _193  and  _196
REMARK   77  A    between atoms: _196  and  _197
REMARK   78  A    between atoms: _197  and  _198
REMARK   79  A    between atoms: _201  and  _203
REMARK   80  A    between atoms: _203  and  _204
REMARK   81  A    between atoms: _203  and  _206
REMARK   82  A    between atoms: _206  and  _207
REMARK   83  A    between atoms: _209  and  _211
REMARK   84  A    between atoms: _211  and  _212
REMARK   85  A    between atoms: _211  and  _214
REMARK   86  A    between atoms: _217  and  _219
REMARK   87  A    between atoms: _219  and  _220
REMARK   88  A    between atoms: _219  and  _222
REMARK   89  A    between atoms: _222  and  _223
REMARK   90  A    between atoms: _228  and  _230
REMARK   91  A    between atoms: _230  and  _231
REMARK   92  A    between atoms: _233  and  _235
REMARK   93  A    between atoms: _235  and  _236
REMARK   94  A    between atoms: _235  and  _238
REMARK   95  A    between atoms: _238  and  _239
REMARK   96  A    between atoms: _243  and  _244
REMARK   97  A    between atoms: _249  and  _251
REMARK   98  A    between atoms: _251  and  _252
REMARK   99  A    between atoms: _251  and  _254
REMARK  100  A    between atoms: _254  and  _255
REMARK  101  A    between atoms: _260  and  _261
REMARK  102  A    between atoms: _263  and  _265
REMARK  103  A    between atoms: _265  and  _266
REMARK  104  A    between atoms: _265  and  _268
REMARK  105  A    between atoms: _268  and  _269
REMARK  106  A    between atoms: _275  and  _277
REMARK  107  A    between atoms: _277  and  _278
REMARK  108  A    between atoms: _277  and  _280
REMARK  109  A    between atoms: _280  and  _281
REMARK  110  A    between atoms: _286  and  _288
REMARK  111  A    between atoms: _288  and  _289
REMARK  112  A    between atoms: _288  and  _291
REMARK  113  A    between atoms: _291  and  _292
REMARK  114  A    between atoms: _297  and  _298
REMARK  115  A    between atoms: _300  and  _302
REMARK  116  A    between atoms: _302  and  _303
REMARK  117  A    between atoms: _305  and  _307
REMARK  118  A    between atoms: _307  and  _308
REMARK  119  A    between atoms: _307  and  _310
REMARK  120  A    between atoms: _310  and  _311
REMARK  121  A    between atoms: _314  and  _316
REMARK  122  A    between atoms: _316  and  _317
REMARK  123  A    between atoms: _316  and  _319
REMARK  124  A    between atoms: _319  and  _320
REMARK  125  A    between atoms: _325  and  _327
REMARK  126  A    between atoms: _327  and  _328
REMARK  127  A    between atoms: _331  and  _332
REMARK  128  A    between atoms: _337  and  _339
REMARK  129  A    between atoms: _339  and  _340
REMARK  130  A    between atoms: _339  and  _342
REMARK  131  A    between atoms: _342  and  _343
REMARK  132  A    between atoms: _353  and  _355
REMARK  133  A    between atoms: _355  and  _356
REMARK  134  A    between atoms: _359  and  _361
REMARK  135  A    between atoms: _361  and  _362
REMARK  136  A    between atoms: _361  and  _364
REMARK  137  A    between atoms: _364  and  _365
REMARK  138  A    between atoms: _371  and  _373
REMARK  139  A    between atoms: _373  and  _374
REMARK  140  A    between atoms: _373  and  _376
REMARK  141  A    between atoms: _376  and  _377
REMARK  142  A    between atoms: _380  and  _382
REMARK  143  A    between atoms: _382  and  _383
REMARK  144  A    between atoms: _385  and  _387
REMARK  145  A    between atoms: _387  and  _388
REMARK  146  A    between atoms: _387  and  _390
REMARK  147  A    between atoms: _393  and  _395
REMARK  148  A    between atoms: _395  and  _396
REMARK  149  A    between atoms: _395  and  _398
REMARK  150  A    between atoms: _398  and  _399
REMARK  151  A    between atoms: _399  and  _400
REMARK  152  A    between atoms: _405  and  _407
REMARK  153  A    between atoms: _407  and  _408
REMARK  154  A    between atoms: _407  and  _410
REMARK  155  A    between atoms: _410  and  _411
REMARK  156  A    between atoms: _417  and  _419
REMARK  157  A    between atoms: _419  and  _420
REMARK  158  A    between atoms: _419  and  _422
REMARK  159  A    between atoms: _422  and  _423
REMARK  160  A    between atoms: _423  and  _424
REMARK  161  A    between atoms: _424  and  _425
REMARK  162  A    between atoms: _434  and  _436
REMARK  163  A    between atoms: _436  and  _437
REMARK  164  A    between atoms: _436  and  _439
REMARK  165  A    between atoms: _439  and  _440
REMARK  166  A    between atoms: _440  and  _441
REMARK  167  A    between atoms: _444  and  _445
REMARK  168  A    between atoms: _450  and  _452
REMARK  169  A    between atoms: _452  and  _453
REMARK  170  A    between atoms: _452  and  _455
REMARK  171  A    between atoms: _455  and  _456
REMARK  172  A    between atoms: _456  and  _457
REMARK  173  A    between atoms: _459  and  _461
REMARK  174  A    between atoms: _461  and  _462
REMARK  175  A    between atoms: _464  and  _466
REMARK  176  A    between atoms: _466  and  _467
REMARK  177  A    between atoms: _466  and  _469
REMARK  178  A    between atoms: _472  and  _474
REMARK  179  A    between atoms: _474  and  _475
REMARK  180  A    between atoms: _474  and  _477
REMARK  181  A    between atoms: _477  and  _478
REMARK  182  A    between atoms: _488  and  _490
REMARK  183  A    between atoms: _490  and  _491
REMARK  184  A    between atoms: _493  and  _495
REMARK  185  A    between atoms: _495  and  _496
REMARK  186  A    between atoms: _495  and  _498
REMARK  187  A    between atoms: _498  and  _499
REMARK  188  A    between atoms: _509  and  _511
REMARK  189  A    between atoms: _511  and  _512
REMARK                            x       y       z     vdW  Elec       q    Type
REMARK                         _______ _______ _______ _____ _____    ______ ____
ROOT
ATOM      1  O   HOH     1      20.854  19.231  28.916  0.00  0.00    +0.000 OA
ENDROOT
TORSDOF 0
REMARK  Name = ../refined-set-2016/2gh9/2gh9_pocket.pdb
REMARK  189 active torsions:
REMARK  status: ('A' for Active; 'I' for Inactive)
REMARK    1  A    between atoms: _1  and  _3
REMARK    2  A    between atoms: _3  and  _4
REMARK    3  A    between atoms: _3  and  _6
REMARK    4  A    between atoms: _6  and  _7
REMARK    5  A    between atoms: _10  and  _12
REMARK    6  A    between atoms: _12  and  _13
REMARK    7  A    between atoms: _12  and  _15
REMARK    8  A    between atoms: _15  and  _16
REMARK    9  A    between atoms: _21  and  _23
REMARK   10  A    between atoms: _23  and  _24
REMARK   11  A    between atoms: _23  and  _26
REMARK   12  A    between atoms: _26  and  _27
REMARK   13  A    between atoms: _33  and  _35
REMARK   14  A    between atoms: _35  and  _36
REMARK   15  A    between atoms: _38  and  _40
REMARK   16  A    between atoms: _40  and  _41
REMARK   17  A    between atoms: _40  and  _43
REMARK   18  A    between atoms: _43  and  _44
REMARK   19  A    between atoms: _44  and  _45
REMARK   20  A    between atoms: _48  and  _50
REMARK   21  A    between atoms: _50  and  _51
REMARK   22  A    between atoms: _50  and  _53
REMARK   23  A    between atoms: _57  and  _58
REMARK   24  A    between atoms: _63  and  _65
REMARK   25  A    between atoms: _65  and  _66
REMARK   26  A    between atoms: _65  and  _68
REMARK   27  A    between atoms: _68  and  _69
REMARK   28  A    between atoms: _75  and  _77
REMARK   29  A    between atoms: _77  and  _78
REMARK   30  A    between atoms: _81  and  _83
REMARK   31  A    between atoms: _83  and  _84
REMARK   32  A    between atoms: _83  and  _86
REMARK   33  A    between atoms: _86  and  _87
REMARK   34  A    between atoms: _87  and  _88
REMARK   35  A    between atoms: _91  and  _93
REMARK   36  A    between atoms: _93  and  _94
REMARK   37  A    between atoms: _93  and  _96
REMARK   38  A    between atoms: _96  and  _97
REMARK   39  A    between atoms: _100  and  _102
REMARK   40  A    between atoms: _102  and  _103
REMARK   41  A    between atoms: _102  and  _105
REMARK   42  A    between atoms: _105  and  _106
REMARK   43  A    between atoms: _106  and  _107
REMARK   44  A    between atoms: _107  and  _108
REMARK   45  A    between atoms: _108  and  _109
REMARK   46  A    between atoms: _113  and  _115
REMARK   47  A    between atoms: _115  and  _116
REMARK   48  A    between atoms: _115  and  _118
REMARK   49  A    between atoms: _118  and  _119
REMARK   50  A    between atoms: _122  and  _124
REMARK   51  A    between atoms: _124  and  _125
REMARK   52  A    between atoms: _124  and  _127
REMARK   53  A    between atoms: _131  and  _132
REMARK   54  A    between atoms: _137  and  _139
REMARK   55  A    between atoms: _139  and  _140
REMARK   56  A    between atoms: _139  and  _142
REMARK   57  A    between atoms: _142  and  _143
REMARK   58  A    between atoms: _148  and  _150
REMARK   59  A    between atoms: _150  and  _151
REMARK   60  A    between atoms: _150  and  _153
REMARK   61  A    between atoms: _153  and  _154
REMARK   62  A    between atoms: _157  and  _159
REMARK   63  A    between atoms: _159  and  _160
REMARK   64  A    between atoms: _159  and  _162
REMARK   65  A    between atoms: _162  and  _163
REMARK   66  A    between atoms: _173  and  _175
REMARK   67  A    between atoms: _175  and  _176
REMARK   68  A    between atoms: _175  and  _178
REMARK   69  A    between atoms: _181  and  _183
REMARK   70  A    between atoms: _183  and  _184
REMARK   71  A    between atoms: _183  and  _186
REMARK   72  A    between atoms: _186  and  _187
REMARK   73  A    between atoms: _187  and  _188
REMARK   74  A    between atoms: _191  and  _193
REMARK   75  A    between atoms: _193  and  _194
REMARK   76  A    between atoms: _193  and  _196
REMARK   77  A    between atoms: _196  and  _197
REMARK   78  A    between atoms: _197  and  _198
REMARK   79  A    between atoms: _201  and  _203
REMARK   80  A    between atoms: _203  and  _204
REMARK   81  A    between atoms: _203  and  _206
REMARK   82  A    between atoms: _206  and  _207
REMARK   83  A    between atoms: _209  and  _211
REMARK   84  A    between atoms: _211  and  _212
REMARK   85  A    between atoms: _211  and  _214
REMARK   86  A    between atoms: _217  and  _219
REMARK   87  A    between atoms: _219  and  _220
REMARK   88  A    between atoms: _219  and  _222
REMARK   89  A    between atoms: _222  and  _223
REMARK   90  A    between atoms: _228  and  _230
REMARK   91  A    between atoms: _230  and  _231
REMARK   92  A    between atoms: _233  and  _235
REMARK   93  A    between atoms: _235  and  _236
REMARK   94  A    between atoms: _235  and  _238
REMARK   95  A    between atoms: _238  and  _239
REMARK   96  A    between atoms: _243  and  _244
REMARK   97  A    between atoms: _249  and  _251
REMARK   98  A    between atoms: _251  and  _252
REMARK   99  A    between atoms: _251  and  _254
REMARK  100  A    between atoms: _254  and  _255
REMARK  101  A    between atoms: _260  and  _261
REMARK  102  A    between atoms: _263  and  _265
REMARK  103  A    between atoms: _265  and  _266
REMARK  104  A    between atoms: _265  and  _268
REMARK  105  A    between atoms: _268  and  _269
REMARK  106  A    between atoms: _275  and  _277
REMARK  107  A    between atoms: _277  and  _278
REMARK  108  A    between atoms: _277  and  _280
REMARK  109  A    between atoms: _280  and  _281
REMARK  110  A    between atoms: _286  and  _288
REMARK  111  A    between atoms: _288  and  _289
REMARK  112  A    between atoms: _288  and  _291
REMARK  113  A    between atoms: _291  and  _292
REMARK  114  A    between atoms: _297  and  _298
REMARK  115  A    between atoms: _300  and  _302
REMARK  116  A    between atoms: _302  and  _303
REMARK  117  A    between atoms: _305  and  _307
REMARK  118  A    between atoms: _307  and  _308
REMARK  119  A    between atoms: _307  and  _310
REMARK  120  A    between atoms: _310  and  _311
REMARK  121  A    between atoms: _314  and  _316
REMARK  122  A    between atoms: _316  and  _317
REMARK  123  A    between atoms: _316  and  _319
REMARK  124  A    between atoms: _319  and  _320
REMARK  125  A    between atoms: _325  and  _327
REMARK  126  A    between atoms: _327  and  _328
REMARK  127  A    between atoms: _331  and  _332
REMARK  128  A    between atoms: _337  and  _339
REMARK  129  A    between atoms: _339  and  _340
REMARK  130  A    between atoms: _339  and  _342
REMARK  131  A    between atoms: _342  and  _343
REMARK  132  A    between atoms: _353  and  _355
REMARK  133  A    between atoms: _355  and  _356
REMARK  134  A    between atoms: _359  and  _361
REMARK  135  A    between atoms: _361  and  _362
REMARK  136  A    between atoms: _361  and  _364
REMARK  137  A    between atoms: _364  and  _365
REMARK  138  A    between atoms: _371  and  _373
REMARK  139  A    between atoms: _373  and  _374
REMARK  140  A    between atoms: _373  and  _376
REMARK  141  A    between atoms: _376  and  _377
REMARK  142  A    between atoms: _380  and  _382
REMARK  143  A    between atoms: _382  and  _383
REMARK  144  A    between atoms: _385  and  _387
REMARK  145  A    between atoms: _387  and  _388
REMARK  146  A    between atoms: _387  and  _390
REMARK  147  A    between atoms: _393  and  _395
REMARK  148  A    between atoms: _395  and  _396
REMARK  149  A    between atoms: _395  and  _398
REMARK  150  A    between atoms: _398  and  _399
REMARK  151  A    between atoms: _399  and  _400
REMARK  152  A    between atoms: _405  and  _407
REMARK  153  A    between atoms: _407  and  _408
REMARK  154  A    between atoms: _407  and  _410
REMARK  155  A    between atoms: _410  and  _411
REMARK  156  A    between atoms: _417  and  _419
REMARK  157  A    between atoms: _419  and  _420
REMARK  158  A    between atoms: _419  and  _422
REMARK  159  A    between atoms: _422  and  _423
REMARK  160  A    between atoms: _423  and  _424
REMARK  161  A    between atoms: _424  and  _425
REMARK  162  A    between atoms: _434  and  _436
REMARK  163  A    between atoms: _436  and  _437
REMARK  164  A    between atoms: _436  and  _439
REMARK  165  A    between atoms: _439  and  _440
REMARK  166  A    between atoms: _440  and  _441
REMARK  167  A    between atoms: _444  and  _445
REMARK  168  A    between atoms: _450  and  _452
REMARK  169  A    between atoms: _452  and  _453
REMARK  170  A    between atoms: _452  and  _455
REMARK  171  A    between atoms: _455  and  _456
REMARK  172  A    between atoms: _456  and  _457
REMARK  173  A    between atoms: _459  and  _461
REMARK  174  A    between atoms: _461  and  _462
REMARK  175  A    between atoms: _464  and  _466
REMARK  176  A    between atoms: _466  and  _467
REMARK  177  A    between atoms: _466  and  _469
REMARK  178  A    between atoms: _472  and  _474
REMARK  179  A    between atoms: _474  and  _475
REMARK  180  A    between atoms: _474  and  _477
REMARK  181  A    between atoms: _477  and  _478
REMARK  182  A    between atoms: _488  and  _490
REMARK  183  A    between atoms: _490  and  _491
REMARK  184  A    between atoms: _493  and  _495
REMARK  185  A    between atoms: _495  and  _496
REMARK  186  A    between atoms: _495  and  _498
REMARK  187  A    between atoms: _498  and  _499
REMARK  188  A    between atoms: _509  and  _511
REMARK  189  A    between atoms: _511  and  _512
REMARK                            x       y       z     vdW  Elec       q    Type
REMARK                         _______ _______ _______ _____ _____    ______ ____
ROOT
ATOM      1  O   HOH     1      25.256  19.054  24.695  0.00  0.00    +0.000 OA
ENDROOT
TORSDOF 0
REMARK  Name = ../refined-set-2016/2gh9/2gh9_pocket.pdb
REMARK  189 active torsions:
REMARK  status: ('A' for Active; 'I' for Inactive)
REMARK    1  A    between atoms: _1  and  _3
REMARK    2  A    between atoms: _3  and  _4
REMARK    3  A    between atoms: _3  and  _6
REMARK    4  A    between atoms: _6  and  _7
REMARK    5  A    between atoms: _10  and  _12
REMARK    6  A    between atoms: _12  and  _13
REMARK    7  A    between atoms: _12  and  _15
REMARK    8  A    between atoms: _15  and  _16
REMARK    9  A    between atoms: _21  and  _23
REMARK   10  A    between atoms: _23  and  _24
REMARK   11  A    between atoms: _23  and  _26
REMARK   12  A    between atoms: _26  and  _27
REMARK   13  A    between atoms: _33  and  _35
REMARK   14  A    between atoms: _35  and  _36
REMARK   15  A    between atoms: _38  and  _40
REMARK   16  A    between atoms: _40  and  _41
REMARK   17  A    between atoms: _40  and  _43
REMARK   18  A    between atoms: _43  and  _44
REMARK   19  A    between atoms: _44  and  _45
REMARK   20  A    between atoms: _48  and  _50
REMARK   21  A    between atoms: _50  and  _51
REMARK   22  A    between atoms: _50  and  _53
REMARK   23  A    between atoms: _57  and  _58
REMARK   24  A    between atoms: _63  and  _65
REMARK   25  A    between atoms: _65  and  _66
REMARK   26  A    between atoms: _65  and  _68
REMARK   27  A    between atoms: _68  and  _69
REMARK   28  A    between atoms: _75  and  _77
REMARK   29  A    between atoms: _77  and  _78
REMARK   30  A    between atoms: _81  and  _83
REMARK   31  A    between atoms: _83  and  _84
REMARK   32  A    between atoms: _83  and  _86
REMARK   33  A    between atoms: _86  and  _87
REMARK   34  A    between atoms: _87  and  _88
REMARK   35  A    between atoms: _91  and  _93
REMARK   36  A    between atoms: _93  and  _94
REMARK   37  A    between atoms: _93  and  _96
REMARK   38  A    between atoms: _96  and  _97
REMARK   39  A    between atoms: _100  and  _102
REMARK   40  A    between atoms: _102  and  _103
REMARK   41  A    between atoms: _102  and  _105
REMARK   42  A    between atoms: _105  and  _106
REMARK   43  A    between atoms: _106  and  _107
REMARK   44  A    between atoms: _107  and  _108
REMARK   45  A    between atoms: _108  and  _109
REMARK   46  A    between atoms: _113  and  _115
REMARK   47  A    between atoms: _115  and  _116
REMARK   48  A    between atoms: _115  and  _118
REMARK   49  A    between atoms: _118  and  _119
REMARK   50  A    between atoms: _122  and  _124
REMARK   51  A    between atoms: _124  and  _125
REMARK   52  A    between atoms: _124  and  _127
REMARK   53  A    between atoms: _131  and  _132
REMARK   54  A    between atoms: _137  and  _139
REMARK   55  A    between atoms: _139  and  _140
REMARK   56  A    between atoms: _139  and  _142
REMARK   57  A    between atoms: _142  and  _143
REMARK   58  A    between atoms: _148  and  _150
REMARK   59  A    between atoms: _150  and  _151
REMARK   60  A    between atoms: _150  and  _153
REMARK   61  A    between atoms: _153  and  _154
REMARK   62  A    between atoms: _157  and  _159
REMARK   63  A    between atoms: _159  and  _160
REMARK   64  A    between atoms: _159  and  _162
REMARK   65  A    between atoms: _162  and  _163
REMARK   66  A    between atoms: _173  and  _175
REMARK   67  A    between atoms: _175  and  _176
REMARK   68  A    between atoms: _175  and  _178
REMARK   69  A    between atoms: _181  and  _183
REMARK   70  A    between atoms: _183  and  _184
REMARK   71  A    between atoms: _183  and  _186
REMARK   72  A    between atoms: _186  and  _187
REMARK   73  A    between atoms: _187  and  _188
REMARK   74  A    between atoms: _191  and  _193
REMARK   75  A    between atoms: _193  and  _194
REMARK   76  A    between atoms: _193  and  _196
REMARK   77  A    between atoms: _196  and  _197
REMARK   78  A    between atoms: _197  and  _198
REMARK   79  A    between atoms: _201  and  _203
REMARK   80  A    between atoms: _203  and  _204
REMARK   81  A    between atoms: _203  and  _206
REMARK   82  A    between atoms: _206  and  _207
REMARK   83  A    between atoms: _209  and  _211
REMARK   84  A    between atoms: _211  and  _212
REMARK   85  A    between atoms: _211  and  _214
REMARK   86  A    between atoms: _217  and  _219
REMARK   87  A    between atoms: _219  and  _220
REMARK   88  A    between atoms: _219  and  _222
REMARK   89  A    between atoms: _222  and  _223
REMARK   90  A    between atoms: _228  and  _230
REMARK   91  A    between atoms: _230  and  _231
REMARK   92  A    between atoms: _233  and  _235
REMARK   93  A    between atoms: _235  and  _236
REMARK   94  A    between atoms: _235  and  _238
REMARK   95  A    between atoms: _238  and  _239
REMARK   96  A    between atoms: _243  and  _244
REMARK   97  A    between atoms: _249  and  _251
REMARK   98  A    between atoms: _251  and  _252
REMARK   99  A    between atoms: _251  and  _254
REMARK  100  A    between atoms: _254  and  _255
REMARK  101  A    between atoms: _260  and  _261
REMARK  102  A    between atoms: _263  and  _265
REMARK  103  A    between atoms: _265  and  _266
REMARK  104  A    between atoms: _265  and  _268
REMARK  105  A    between atoms: _268  and  _269
REMARK  106  A    between atoms: _275  and  _277
REMARK  107  A    between atoms: _277  and  _278
REMARK  108  A    between atoms: _277  and  _280
REMARK  109  A    between atoms: _280  and  _281
REMARK  110  A    between atoms: _286  and  _288
REMARK  111  A    between atoms: _288  and  _289
REMARK  112  A    between atoms: _288  and  _291
REMARK  113  A    between atoms: _291  and  _292
REMARK  114  A    between atoms: _297  and  _298
REMARK  115  A    between atoms: _300  and  _302
REMARK  116  A    between atoms: _302  and  _303
REMARK  117  A    between atoms: _305  and  _307
REMARK  118  A    between atoms: _307  and  _308
REMARK  119  A    between atoms: _307  and  _310
REMARK  120  A    between atoms: _310  and  _311
REMARK  121  A    between atoms: _314  and  _316
REMARK  122  A    between atoms: _316  and  _317
REMARK  123  A    between atoms: _316  and  _319
REMARK  124  A    between atoms: _319  and  _320
REMARK  125  A    between atoms: _325  and  _327
REMARK  126  A    between atoms: _327  and  _328
REMARK  127  A    between atoms: _331  and  _332
REMARK  128  A    between atoms: _337  and  _339
REMARK  129  A    between atoms: _339  and  _340
REMARK  130  A    between atoms: _339  and  _342
REMARK  131  A    between atoms: _342  and  _343
REMARK  132  A    between atoms: _353  and  _355
REMARK  133  A    between atoms: _355  and  _356
REMARK  134  A    between atoms: _359  and  _361
REMARK  135  A    between atoms: _361  and  _362
REMARK  136  A    between atoms: _361  and  _364
REMARK  137  A    between atoms: _364  and  _365
REMARK  138  A    between atoms: _371  and  _373
REMARK  139  A    between atoms: _373  and  _374
REMARK  140  A    between atoms: _373  and  _376
REMARK  141  A    between atoms: _376  and  _377
REMARK  142  A    between atoms: _380  and  _382
REMARK  143  A    between atoms: _382  and  _383
REMARK  144  A    between atoms: _385  and  _387
REMARK  145  A    between atoms: _387  and  _388
REMARK  146  A    between atoms: _387  and  _390
REMARK  147  A    between atoms: _393  and  _395
REMARK  148  A    between atoms: _395  and  _396
REMARK  149  A    between atoms: _395  and  _398
REMARK  150  A    between atoms: _398  and  _399
REMARK  151  A    between atoms: _399  and  _400
REMARK  152  A    between atoms: _405  and  _407
REMARK  153  A    between atoms: _407  and  _408
REMARK  154  A    between atoms: _407  and  _410
REMARK  155  A    between atoms: _410  and  _411
REMARK  156  A    between atoms: _417  and  _419
REMARK  157  A    between atoms: _419  and  _420
REMARK  158  A    between atoms: _419  and  _422
REMARK  159  A    between atoms: _422  and  _423
REMARK  160  A    between atoms: _423  and  _424
REMARK  161  A    between atoms: _424  and  _425
REMARK  162  A    between atoms: _434  and  _436
REMARK  163  A    between atoms: _436  and  _437
REMARK  164  A    between atoms: _436  and  _439
REMARK  165  A    between atoms: _439  and  _440
REMARK  166  A    between atoms: _440  and  _441
REMARK  167  A    between atoms: _444  and  _445
REMARK  168  A    between atoms: _450  and  _452
REMARK  169  A    between atoms: _452  and  _453
REMARK  170  A    between atoms: _452  and  _455
REMARK  171  A    between atoms: _455  and  _456
REMARK  172  A    between atoms: _456  and  _457
REMARK  173  A    between atoms: _459  and  _461
REMARK  174  A    between atoms: _461  and  _462
REMARK  175  A    between atoms: _464  and  _466
REMARK  176  A    between atoms: _466  and  _467
REMARK  177  A    between atoms: _466  and  _469
REMARK  178  A    between atoms: _472  and  _474
REMARK  179  A    between atoms: _474  and  _475
REMARK  180  A    between atoms: _474  and  _477
REMARK  181  A    between atoms: _477  and  _478
REMARK  182  A    between atoms: _488  and  _490
REMARK  183  A    between atoms: _490  and  _491
REMARK  184  A    between atoms: _493  and  _495
REMARK  185  A    between atoms: _495  and  _496
REMARK  186  A    between atoms: _495  and  _498
REMARK  187  A    between atoms: _498  and  _499
REMARK  188  A    between atoms: _509  and  _511
REMARK  189  A    between atoms: _511  and  _512
REMARK                            x       y       z     vdW  Elec       q    Type
REMARK                         _______ _______ _______ _____ _____    ______ ____
ROOT
ATOM      1  O   HOH     1      21.038  22.936  18.954  0.00  0.00    +0.000 OA
ENDROOT
TORSDOF 0
REMARK  Name = ../refined-set-2016/2gh9/2gh9_pocket.pdb
REMARK  189 active torsions:
REMARK  status: ('A' for Active; 'I' for Inactive)
REMARK    1  A    between atoms: _1  and  _3
REMARK    2  A    between atoms: _3  and  _4
REMARK    3  A    between atoms: _3  and  _6
REMARK    4  A    between atoms: _6  and  _7
REMARK    5  A    between atoms: _10  and  _12
REMARK    6  A    between atoms: _12  and  _13
REMARK    7  A    between atoms: _12  and  _15
REMARK    8  A    between atoms: _15  and  _16
REMARK    9  A    between atoms: _21  and  _23
REMARK   10  A    between atoms: _23  and  _24
REMARK   11  A    between atoms: _23  and  _26
REMARK   12  A    between atoms: _26  and  _27
REMARK   13  A    between atoms: _33  and  _35
REMARK   14  A    between atoms: _35  and  _36
REMARK   15  A    between atoms: _38  and  _40
REMARK   16  A    between atoms: _40  and  _41
REMARK   17  A    between atoms: _40  and  _43
REMARK   18  A    between atoms: _43  and  _44
REMARK   19  A    between atoms: _44  and  _45
REMARK   20  A    between atoms: _48  and  _50
REMARK   21  A    between atoms: _50  and  _51
REMARK   22  A    between atoms: _50  and  _53
REMARK   23  A    between atoms: _57  and  _58
REMARK   24  A    between atoms: _63  and  _65
REMARK   25  A    between atoms: _65  and  _66
REMARK   26  A    between atoms: _65  and  _68
REMARK   27  A    between atoms: _68  and  _69
REMARK   28  A    between atoms: _75  and  _77
REMARK   29  A    between atoms: _77  and  _78
REMARK   30  A    between atoms: _81  and  _83
REMARK   31  A    between atoms: _83  and  _84
REMARK   32  A    between atoms: _83  and  _86
REMARK   33  A    between atoms: _86  and  _87
REMARK   34  A    between atoms: _87  and  _88
REMARK   35  A    between atoms: _91  and  _93
REMARK   36  A    between atoms: _93  and  _94
REMARK   37  A    between atoms: _93  and  _96
REMARK   38  A    between atoms: _96  and  _97
REMARK   39  A    between atoms: _100  and  _102
REMARK   40  A    between atoms: _102  and  _103
REMARK   41  A    between atoms: _102  and  _105
REMARK   42  A    between atoms: _105  and  _106
REMARK   43  A    between atoms: _106  and  _107
REMARK   44  A    between atoms: _107  and  _108
REMARK   45  A    between atoms: _108  and  _109
REMARK   46  A    between atoms: _113  and  _115
REMARK   47  A    between atoms: _115  and  _116
REMARK   48  A    between atoms: _115  and  _118
REMARK   49  A    between atoms: _118  and  _119
REMARK   50  A    between atoms: _122  and  _124
REMARK   51  A    between atoms: _124  and  _125
REMARK   52  A    between atoms: _124  and  _127
REMARK   53  A    between atoms: _131  and  _132
REMARK   54  A    between atoms: _137  and  _139
REMARK   55  A    between atoms: _139  and  _140
REMARK   56  A    between atoms: _139  and  _142
REMARK   57  A    between atoms: _142  and  _143
REMARK   58  A    between atoms: _148  and  _150
REMARK   59  A    between atoms: _150  and  _151
REMARK   60  A    between atoms: _150  and  _153
REMARK   61  A    between atoms: _153  and  _154
REMARK   62  A    between atoms: _157  and  _159
REMARK   63  A    between atoms: _159  and  _160
REMARK   64  A    between atoms: _159  and  _162
REMARK   65  A    between atoms: _162  and  _163
REMARK   66  A    between atoms: _173  and  _175
REMARK   67  A    between atoms: _175  and  _176
REMARK   68  A    between atoms: _175  and  _178
REMARK   69  A    between atoms: _181  and  _183
REMARK   70  A    between atoms: _183  and  _184
REMARK   71  A    between atoms: _183  and  _186
REMARK   72  A    between atoms: _186  and  _187
REMARK   73  A    between atoms: _187  and  _188
REMARK   74  A    between atoms: _191  and  _193
REMARK   75  A    between atoms: _193  and  _194
REMARK   76  A    between atoms: _193  and  _196
REMARK   77  A    between atoms: _196  and  _197
REMARK   78  A    between atoms: _197  and  _198
REMARK   79  A    between atoms: _201  and  _203
REMARK   80  A    between atoms: _203  and  _204
REMARK   81  A    between atoms: _203  and  _206
REMARK   82  A    between atoms: _206  and  _207
REMARK   83  A    between atoms: _209  and  _211
REMARK   84  A    between atoms: _211  and  _212
REMARK   85  A    between atoms: _211  and  _214
REMARK   86  A    between atoms: _217  and  _219
REMARK   87  A    between atoms: _219  and  _220
REMARK   88  A    between atoms: _219  and  _222
REMARK   89  A    between atoms: _222  and  _223
REMARK   90  A    between atoms: _228  and  _230
REMARK   91  A    between atoms: _230  and  _231
REMARK   92  A    between atoms: _233  and  _235
REMARK   93  A    between atoms: _235  and  _236
REMARK   94  A    between atoms: _235  and  _238
REMARK   95  A    between atoms: _238  and  _239
REMARK   96  A    between atoms: _243  and  _244
REMARK   97  A    between atoms: _249  and  _251
REMARK   98  A    between atoms: _251  and  _252
REMARK   99  A    between atoms: _251  and  _254
REMARK  100  A    between atoms: _254  and  _255
REMARK  101  A    between atoms: _260  and  _261
REMARK  102  A    between atoms: _263  and  _265
REMARK  103  A    between atoms: _265  and  _266
REMARK  104  A    between atoms: _265  and  _268
REMARK  105  A    between atoms: _268  and  _269
REMARK  106  A    between atoms: _275  and  _277
REMARK  107  A    between atoms: _277  and  _278
REMARK  108  A    between atoms: _277  and  _280
REMARK  109  A    between atoms: _280  and  _281
REMARK  110  A    between atoms: _286  and  _288
REMARK  111  A    between atoms: _288  and  _289
REMARK  112  A    between atoms: _288  and  _291
REMARK  113  A    between atoms: _291  and  _292
REMARK  114  A    between atoms: _297  and  _298
REMARK  115  A    between atoms: _300  and  _302
REMARK  116  A    between atoms: _302  and  _303
REMARK  117  A    between atoms: _305  and  _307
REMARK  118  A    between atoms: _307  and  _308
REMARK  119  A    between atoms: _307  and  _310
REMARK  120  A    between atoms: _310  and  _311
REMARK  121  A    between atoms: _314  and  _316
REMARK  122  A    between atoms: _316  and  _317
REMARK  123  A    between atoms: _316  and  _319
REMARK  124  A    between atoms: _319  and  _320
REMARK  125  A    between atoms: _325  and  _327
REMARK  126  A    between atoms: _327  and  _328
REMARK  127  A    between atoms: _331  and  _332
REMARK  128  A    between atoms: _337  and  _339
REMARK  129  A    between atoms: _339  and  _340
REMARK  130  A    between atoms: _339  and  _342
REMARK  131  A    between atoms: _342  and  _343
REMARK  132  A    between atoms: _353  and  _355
REMARK  133  A    between atoms: _355  and  _356
REMARK  134  A    between atoms: _359  and  _361
REMARK  135  A    between atoms: _361  and  _362
REMARK  136  A    between atoms: _361  and  _364
REMARK  137  A    between atoms: _364  and  _365
REMARK  138  A    between atoms: _371  and  _373
REMARK  139  A    between atoms: _373  and  _374
REMARK  140  A    between atoms: _373  and  _376
REMARK  141  A    between atoms: _376  and  _377
REMARK  142  A    between atoms: _380  and  _382
REMARK  143  A    between atoms: _382  and  _383
REMARK  144  A    between atoms: _385  and  _387
REMARK  145  A    between atoms: _387  and  _388
REMARK  146  A    between atoms: _387  and  _390
REMARK  147  A    between atoms: _393  and  _395
REMARK  148  A    between atoms: _395  and  _396
REMARK  149  A    between atoms: _395  and  _398
REMARK  150  A    between atoms: _398  and  _399
REMARK  151  A    between atoms: _399  and  _400
REMARK  152  A    between atoms: _405  and  _407
REMARK  153  A    between atoms: _407  and  _408
REMARK  154  A    between atoms: _407  and  _410
REMARK  155  A    between atoms: _410  and  _411
REMARK  156  A    between atoms: _417  and  _419
REMARK  157  A    between atoms: _419  and  _420
REMARK  158  A    between atoms: _419  and  _422
REMARK  159  A    between atoms: _422  and  _423
REMARK  160  A    between atoms: _423  and  _424
REMARK  161  A    between atoms: _424  and  _425
REMARK  162  A    between atoms: _434  and  _436
REMARK  163  A    between atoms: _436  and  _437
REMARK  164  A    between atoms: _436  and  _439
REMARK  165  A    between atoms: _439  and  _440
REMARK  166  A    between atoms: _440  and  _441
REMARK  167  A    between atoms: _444  and  _445
REMARK  168  A    between atoms: _450  and  _452
REMARK  169  A    between atoms: _452  and  _453
REMARK  170  A    between atoms: _452  and  _455
REMARK  171  A    between atoms: _455  and  _456
REMARK  172  A    between atoms: _456  and  _457
REMARK  173  A    between atoms: _459  and  _461
REMARK  174  A    between atoms: _461  and  _462
REMARK  175  A    between atoms: _464  and  _466
REMARK  176  A    between atoms: _466  and  _467
REMARK  177  A    between atoms: _466  and  _469
REMARK  178  A    between atoms: _472  and  _474
REMARK  179  A    between atoms: _474  and  _475
REMARK  180  A    between atoms: _474  and  _477
REMARK  181  A    between atoms: _477  and  _478
REMARK  182  A    between atoms: _488  and  _490
REMARK  183  A    between atoms: _490  and  _491
REMARK  184  A    between atoms: _493  and  _495
REMARK  185  A    between atoms: _495  and  _496
REMARK  186  A    between atoms: _495  and  _498
REMARK  187  A    between atoms: _498  and  _499
REMARK  188  A    between atoms: _509  and  _511
REMARK  189  A    between atoms: _511  and  _512
REMARK                            x       y       z     vdW  Elec       q    Type
REMARK                         _______ _______ _______ _____ _____    ______ ____
ROOT
ATOM      1  O   HOH     1      30.823  17.122  15.902  0.00  0.00    +0.000 OA
ENDROOT
TORSDOF 0
REMARK  Name = ../refined-set-2016/2gh9/2gh9_pocket.pdb
REMARK  189 active torsions:
REMARK  status: ('A' for Active; 'I' for Inactive)
REMARK    1  A    between atoms: _1  and  _3
REMARK    2  A    between atoms: _3  and  _4
REMARK    3  A    between atoms: _3  and  _6
REMARK    4  A    between atoms: _6  and  _7
REMARK    5  A    between atoms: _10  and  _12
REMARK    6  A    between atoms: _12  and  _13
REMARK    7  A    between atoms: _12  and  _15
REMARK    8  A    between atoms: _15  and  _16
REMARK    9  A    between atoms: _21  and  _23
REMARK   10  A    between atoms: _23  and  _24
REMARK   11  A    between atoms: _23  and  _26
REMARK   12  A    between atoms: _26  and  _27
REMARK   13  A    between atoms: _33  and  _35
REMARK   14  A    between atoms: _35  and  _36
REMARK   15  A    between atoms: _38  and  _40
REMARK   16  A    between atoms: _40  and  _41
REMARK   17  A    between atoms: _40  and  _43
REMARK   18  A    between atoms: _43  and  _44
REMARK   19  A    between atoms: _44  and  _45
REMARK   20  A    between atoms: _48  and  _50
REMARK   21  A    between atoms: _50  and  _51
REMARK   22  A    between atoms: _50  and  _53
REMARK   23  A    between atoms: _57  and  _58
REMARK   24  A    between atoms: _63  and  _65
REMARK   25  A    between atoms: _65  and  _66
REMARK   26  A    between atoms: _65  and  _68
REMARK   27  A    between atoms: _68  and  _69
REMARK   28  A    between atoms: _75  and  _77
REMARK   29  A    between atoms: _77  and  _78
REMARK   30  A    between atoms: _81  and  _83
REMARK   31  A    between atoms: _83  and  _84
REMARK   32  A    between atoms: _83  and  _86
REMARK   33  A    between atoms: _86  and  _87
REMARK   34  A    between atoms: _87  and  _88
REMARK   35  A    between atoms: _91  and  _93
REMARK   36  A    between atoms: _93  and  _94
REMARK   37  A    between atoms: _93  and  _96
REMARK   38  A    between atoms: _96  and  _97
REMARK   39  A    between atoms: _100  and  _102
REMARK   40  A    between atoms: _102  and  _103
REMARK   41  A    between atoms: _102  and  _105
REMARK   42  A    between atoms: _105  and  _106
REMARK   43  A    between atoms: _106  and  _107
REMARK   44  A    between atoms: _107  and  _108
REMARK   45  A    between atoms: _108  and  _109
REMARK   46  A    between atoms: _113  and  _115
REMARK   47  A    between atoms: _115  and  _116
REMARK   48  A    between atoms: _115  and  _118
REMARK   49  A    between atoms: _118  and  _119
REMARK   50  A    between atoms: _122  and  _124
REMARK   51  A    between atoms: _124  and  _125
REMARK   52  A    between atoms: _124  and  _127
REMARK   53  A    between atoms: _131  and  _132
REMARK   54  A    between atoms: _137  and  _139
REMARK   55  A    between atoms: _139  and  _140
REMARK   56  A    between atoms: _139  and  _142
REMARK   57  A    between atoms: _142  and  _143
REMARK   58  A    between atoms: _148  and  _150
REMARK   59  A    between atoms: _150  and  _151
REMARK   60  A    between atoms: _150  and  _153
REMARK   61  A    between atoms: _153  and  _154
REMARK   62  A    between atoms: _157  and  _159
REMARK   63  A    between atoms: _159  and  _160
REMARK   64  A    between atoms: _159  and  _162
REMARK   65  A    between atoms: _162  and  _163
REMARK   66  A    between atoms: _173  and  _175
REMARK   67  A    between atoms: _175  and  _176
REMARK   68  A    between atoms: _175  and  _178
REMARK   69  A    between atoms: _181  and  _183
REMARK   70  A    between atoms: _183  and  _184
REMARK   71  A    between atoms: _183  and  _186
REMARK   72  A    between atoms: _186  and  _187
REMARK   73  A    between atoms: _187  and  _188
REMARK   74  A    between atoms: _191  and  _193
REMARK   75  A    between atoms: _193  and  _194
REMARK   76  A    between atoms: _193  and  _196
REMARK   77  A    between atoms: _196  and  _197
REMARK   78  A    between atoms: _197  and  _198
REMARK   79  A    between atoms: _201  and  _203
REMARK   80  A    between atoms: _203  and  _204
REMARK   81  A    between atoms: _203  and  _206
REMARK   82  A    between atoms: _206  and  _207
REMARK   83  A    between atoms: _209  and  _211
REMARK   84  A    between atoms: _211  and  _212
REMARK   85  A    between atoms: _211  and  _214
REMARK   86  A    between atoms: _217  and  _219
REMARK   87  A    between atoms: _219  and  _220
REMARK   88  A    between atoms: _219  and  _222
REMARK   89  A    between atoms: _222  and  _223
REMARK   90  A    between atoms: _228  and  _230
REMARK   91  A    between atoms: _230  and  _231
REMARK   92  A    between atoms: _233  and  _235
REMARK   93  A    between atoms: _235  and  _236
REMARK   94  A    between atoms: _235  and  _238
REMARK   95  A    between atoms: _238  and  _239
REMARK   96  A    between atoms: _243  and  _244
REMARK   97  A    between atoms: _249  and  _251
REMARK   98  A    between atoms: _251  and  _252
REMARK   99  A    between atoms: _251  and  _254
REMARK  100  A    between atoms: _254  and  _255
REMARK  101  A    between atoms: _260  and  _261
REMARK  102  A    between atoms: _263  and  _265
REMARK  103  A    between atoms: _265  and  _266
REMARK  104  A    between atoms: _265  and  _268
REMARK  105  A    between atoms: _268  and  _269
REMARK  106  A    between atoms: _275  and  _277
REMARK  107  A    between atoms: _277  and  _278
REMARK  108  A    between atoms: _277  and  _280
REMARK  109  A    between atoms: _280  and  _281
REMARK  110  A    between atoms: _286  and  _288
REMARK  111  A    between atoms: _288  and  _289
REMARK  112  A    between atoms: _288  and  _291
REMARK  113  A    between atoms: _291  and  _292
REMARK  114  A    between atoms: _297  and  _298
REMARK  115  A    between atoms: _300  and  _302
REMARK  116  A    between atoms: _302  and  _303
REMARK  117  A    between atoms: _305  and  _307
REMARK  118  A    between atoms: _307  and  _308
REMARK  119  A    between atoms: _307  and  _310
REMARK  120  A    between atoms: _310  and  _311
REMARK  121  A    between atoms: _314  and  _316
REMARK  122  A    between atoms: _316  and  _317
REMARK  123  A    between atoms: _316  and  _319
REMARK  124  A    between atoms: _319  and  _320
REMARK  125  A    between atoms: _325  and  _327
REMARK  126  A    between atoms: _327  and  _328
REMARK  127  A    between atoms: _331  and  _332
REMARK  128  A    between atoms: _337  and  _339
REMARK  129  A    between atoms: _339  and  _340
REMARK  130  A    between atoms: _339  and  _342
REMARK  131  A    between atoms: _342  and  _343
REMARK  132  A    between atoms: _353  and  _355
REMARK  133  A    between atoms: _355  and  _356
REMARK  134  A    between atoms: _359  and  _361
REMARK  135  A    between atoms: _361  and  _362
REMARK  136  A    between atoms: _361  and  _364
REMARK  137  A    between atoms: _364  and  _365
REMARK  138  A    between atoms: _371  and  _373
REMARK  139  A    between atoms: _373  and  _374
REMARK  140  A    between atoms: _373  and  _376
REMARK  141  A    between atoms: _376  and  _377
REMARK  142  A    between atoms: _380  and  _382
REMARK  143  A    between atoms: _382  and  _383
REMARK  144  A    between atoms: _385  and  _387
REMARK  145  A    between atoms: _387  and  _388
REMARK  146  A    between atoms: _387  and  _390
REMARK  147  A    between atoms: _393  and  _395
REMARK  148  A    between atoms: _395  and  _396
REMARK  149  A    between atoms: _395  and  _398
REMARK  150  A    between atoms: _398  and  _399
REMARK  151  A    between atoms: _399  and  _400
REMARK  152  A    between atoms: _405  and  _407
REMARK  153  A    between atoms: _407  and  _408
REMARK  154  A    between atoms: _407  and  _410
REMARK  155  A    between atoms: _410  and  _411
REMARK  156  A    between atoms: _417  and  _419
REMARK  157  A    between atoms: _419  and  _420
REMARK  158  A    between atoms: _419  and  _422
REMARK  159  A    between atoms: _422  and  _423
REMARK  160  A    between atoms: _423  and  _424
REMARK  161  A    between atoms: _424  and  _425
REMARK  162  A    between atoms: _434  and  _436
REMARK  163  A    between atoms: _436  and  _437
REMARK  164  A    between atoms: _436  and  _439
REMARK  165  A    between atoms: _439  and  _440
REMARK  166  A    between atoms: _440  and  _441
REMARK  167  A    between atoms: _444  and  _445
REMARK  168  A    between atoms: _450  and  _452
REMARK  169  A    between atoms: _452  and  _453
REMARK  170  A    between atoms: _452  and  _455
REMARK  171  A    between atoms: _455  and  _456
REMARK  172  A    between atoms: _456  and  _457
REMARK  173  A    between atoms: _459  and  _461
REMARK  174  A    between atoms: _461  and  _462
REMARK  175  A    between atoms: _464  and  _466
REMARK  176  A    between atoms: _466  and  _467
REMARK  177  A    between atoms: _466  and  _469
REMARK  178  A    between atoms: _472  and  _474
REMARK  179  A    between atoms: _474  and  _475
REMARK  180  A    between atoms: _474  and  _477
REMARK  181  A    between atoms: _477  and  _478
REMARK  182  A    between atoms: _488  and  _490
REMARK  183  A    between atoms: _490  and  _491
REMARK  184  A    between atoms: _493  and  _495
REMARK  185  A    between atoms: _495  and  _496
REMARK  186  A    between atoms: _495  and  _498
REMARK  187  A    between atoms: _498  and  _499
REMARK  188  A    between atoms: _509  and  _511
REMARK  189  A    between atoms: _511  and  _512
REMARK                            x       y       z     vdW  Elec       q    Type
REMARK                         _______ _______ _______ _____ _____    ______ ____
ROOT
ATOM      1  O   HOH     1      30.899  21.801  21.709  0.00  0.00    +0.000 OA
ENDROOT
TORSDOF 0
REMARK  Name = ../refined-set-2016/2gh9/2gh9_pocket.pdb
REMARK  189 active torsions:
REMARK  status: ('A' for Active; 'I' for Inactive)
REMARK    1  A    between atoms: _1  and  _3
REMARK    2  A    between atoms: _3  and  _4
REMARK    3  A    between atoms: _3  and  _6
REMARK    4  A    between atoms: _6  and  _7
REMARK    5  A    between atoms: _10  and  _12
REMARK    6  A    between atoms: _12  and  _13
REMARK    7  A    between atoms: _12  and  _15
REMARK    8  A    between atoms: _15  and  _16
REMARK    9  A    between atoms: _21  and  _23
REMARK   10  A    between atoms: _23  and  _24
REMARK   11  A    between atoms: _23  and  _26
REMARK   12  A    between atoms: _26  and  _27
REMARK   13  A    between atoms: _33  and  _35
REMARK   14  A    between atoms: _35  and  _36
REMARK   15  A    between atoms: _38  and  _40
REMARK   16  A    between atoms: _40  and  _41
REMARK   17  A    between atoms: _40  and  _43
REMARK   18  A    between atoms: _43  and  _44
REMARK   19  A    between atoms: _44  and  _45
REMARK   20  A    between atoms: _48  and  _50
REMARK   21  A    between atoms: _50  and  _51
REMARK   22  A    between atoms: _50  and  _53
REMARK   23  A    between atoms: _57  and  _58
REMARK   24  A    between atoms: _63  and  _65
REMARK   25  A    between atoms: _65  and  _66
REMARK   26  A    between atoms: _65  and  _68
REMARK   27  A    between atoms: _68  and  _69
REMARK   28  A    between atoms: _75  and  _77
REMARK   29  A    between atoms: _77  and  _78
REMARK   30  A    between atoms: _81  and  _83
REMARK   31  A    between atoms: _83  and  _84
REMARK   32  A    between atoms: _83  and  _86
REMARK   33  A    between atoms: _86  and  _87
REMARK   34  A    between atoms: _87  and  _88
REMARK   35  A    between atoms: _91  and  _93
REMARK   36  A    between atoms: _93  and  _94
REMARK   37  A    between atoms: _93  and  _96
REMARK   38  A    between atoms: _96  and  _97
REMARK   39  A    between atoms: _100  and  _102
REMARK   40  A    between atoms: _102  and  _103
REMARK   41  A    between atoms: _102  and  _105
REMARK   42  A    between atoms: _105  and  _106
REMARK   43  A    between atoms: _106  and  _107
REMARK   44  A    between atoms: _107  and  _108
REMARK   45  A    between atoms: _108  and  _109
REMARK   46  A    between atoms: _113  and  _115
REMARK   47  A    between atoms: _115  and  _116
REMARK   48  A    between atoms: _115  and  _118
REMARK   49  A    between atoms: _118  and  _119
REMARK   50  A    between atoms: _122  and  _124
REMARK   51  A    between atoms: _124  and  _125
REMARK   52  A    between atoms: _124  and  _127
REMARK   53  A    between atoms: _131  and  _132
REMARK   54  A    between atoms: _137  and  _139
REMARK   55  A    between atoms: _139  and  _140
REMARK   56  A    between atoms: _139  and  _142
REMARK   57  A    between atoms: _142  and  _143
REMARK   58  A    between atoms: _148  and  _150
REMARK   59  A    between atoms: _150  and  _151
REMARK   60  A    between atoms: _150  and  _153
REMARK   61  A    between atoms: _153  and  _154
REMARK   62  A    between atoms: _157  and  _159
REMARK   63  A    between atoms: _159  and  _160
REMARK   64  A    between atoms: _159  and  _162
REMARK   65  A    between atoms: _162  and  _163
REMARK   66  A    between atoms: _173  and  _175
REMARK   67  A    between atoms: _175  and  _176
REMARK   68  A    between atoms: _175  and  _178
REMARK   69  A    between atoms: _181  and  _183
REMARK   70  A    between atoms: _183  and  _184
REMARK   71  A    between atoms: _183  and  _186
REMARK   72  A    between atoms: _186  and  _187
REMARK   73  A    between atoms: _187  and  _188
REMARK   74  A    between atoms: _191  and  _193
REMARK   75  A    between atoms: _193  and  _194
REMARK   76  A    between atoms: _193  and  _196
REMARK   77  A    between atoms: _196  and  _197
REMARK   78  A    between atoms: _197  and  _198
REMARK   79  A    between atoms: _201  and  _203
REMARK   80  A    between atoms: _203  and  _204
REMARK   81  A    between atoms: _203  and  _206
REMARK   82  A    between atoms: _206  and  _207
REMARK   83  A    between atoms: _209  and  _211
REMARK   84  A    between atoms: _211  and  _212
REMARK   85  A    between atoms: _211  and  _214
REMARK   86  A    between atoms: _217  and  _219
REMARK   87  A    between atoms: _219  and  _220
REMARK   88  A    between atoms: _219  and  _222
REMARK   89  A    between atoms: _222  and  _223
REMARK   90  A    between atoms: _228  and  _230
REMARK   91  A    between atoms: _230  and  _231
REMARK   92  A    between atoms: _233  and  _235
REMARK   93  A    between atoms: _235  and  _236
REMARK   94  A    between atoms: _235  and  _238
REMARK   95  A    between atoms: _238  and  _239
REMARK   96  A    between atoms: _243  and  _244
REMARK   97  A    between atoms: _249  and  _251
REMARK   98  A    between atoms: _251  and  _252
REMARK   99  A    between atoms: _251  and  _254
REMARK  100  A    between atoms: _254  and  _255
REMARK  101  A    between atoms: _260  and  _261
REMARK  102  A    between atoms: _263  and  _265
REMARK  103  A    between atoms: _265  and  _266
REMARK  104  A    between atoms: _265  and  _268
REMARK  105  A    between atoms: _268  and  _269
REMARK  106  A    between atoms: _275  and  _277
REMARK  107  A    between atoms: _277  and  _278
REMARK  108  A    between atoms: _277  and  _280
REMARK  109  A    between atoms: _280  and  _281
REMARK  110  A    between atoms: _286  and  _288
REMARK  111  A    between atoms: _288  and  _289
REMARK  112  A    between atoms: _288  and  _291
REMARK  113  A    between atoms: _291  and  _292
REMARK  114  A    between atoms: _297  and  _298
REMARK  115  A    between atoms: _300  and  _302
REMARK  116  A    between atoms: _302  and  _303
REMARK  117  A    between atoms: _305  and  _307
REMARK  118  A    between atoms: _307  and  _308
REMARK  119  A    between atoms: _307  and  _310
REMARK  120  A    between atoms: _310  and  _311
REMARK  121  A    between atoms: _314  and  _316
REMARK  122  A    between atoms: _316  and  _317
REMARK  123  A    between atoms: _316  and  _319
REMARK  124  A    between atoms: _319  and  _320
REMARK  125  A    between atoms: _325  and  _327
REMARK  126  A    between atoms: _327  and  _328
REMARK  127  A    between atoms: _331  and  _332
REMARK  128  A    between atoms: _337  and  _339
REMARK  129  A    between atoms: _339  and  _340
REMARK  130  A    between atoms: _339  and  _342
REMARK  131  A    between atoms: _342  and  _343
REMARK  132  A    between atoms: _353  and  _355
REMARK  133  A    between atoms: _355  and  _356
REMARK  134  A    between atoms: _359  and  _361
REMARK  135  A    between atoms: _361  and  _362
REMARK  136  A    between atoms: _361  and  _364
REMARK  137  A    between atoms: _364  and  _365
REMARK  138  A    between atoms: _371  and  _373
REMARK  139  A    between atoms: _373  and  _374
REMARK  140  A    between atoms: _373  and  _376
REMARK  141  A    between atoms: _376  and  _377
REMARK  142  A    between atoms: _380  and  _382
REMARK  143  A    between atoms: _382  and  _383
REMARK  144  A    between atoms: _385  and  _387
REMARK  145  A    between atoms: _387  and  _388
REMARK  146  A    between atoms: _387  and  _390
REMARK  147  A    between atoms: _393  and  _395
REMARK  148  A    between atoms: _395  and  _396
REMARK  149  A    between atoms: _395  and  _398
REMARK  150  A    between atoms: _398  and  _399
REMARK  151  A    between atoms: _399  and  _400
REMARK  152  A    between atoms: _405  and  _407
REMARK  153  A    between atoms: _407  and  _408
REMARK  154  A    between atoms: _407  and  _410
REMARK  155  A    between atoms: _410  and  _411
REMARK  156  A    between atoms: _417  and  _419
REMARK  157  A    between atoms: _419  and  _420
REMARK  158  A    between atoms: _419  and  _422
REMARK  159  A    between atoms: _422  and  _423
REMARK  160  A    between atoms: _423  and  _424
REMARK  161  A    between atoms: _424  and  _425
REMARK  162  A    between atoms: _434  and  _436
REMARK  163  A    between atoms: _436  and  _437
REMARK  164  A    between atoms: _436  and  _439
REMARK  165  A    between atoms: _439  and  _440
REMARK  166  A    between atoms: _440  and  _441
REMARK  167  A    between atoms: _444  and  _445
REMARK  168  A    between atoms: _450  and  _452
REMARK  169  A    between atoms: _452  and  _453
REMARK  170  A    between atoms: _452  and  _455
REMARK  171  A    between atoms: _455  and  _456
REMARK  172  A    between atoms: _456  and  _457
REMARK  173  A    between atoms: _459  and  _461
REMARK  174  A    between atoms: _461  and  _462
REMARK  175  A    between atoms: _464  and  _466
REMARK  176  A    between atoms: _466  and  _467
REMARK  177  A    between atoms: _466  and  _469
REMARK  178  A    between atoms: _472  and  _474
REMARK  179  A    between atoms: _474  and  _475
REMARK  180  A    between atoms: _474  and  _477
REMARK  181  A    between atoms: _477  and  _478
REMARK  182  A    between atoms: _488  and  _490
REMARK  183  A    between atoms: _490  and  _491
REMARK  184  A    between atoms: _493  and  _495
REMARK  185  A    between atoms: _495  and  _496
REMARK  186  A    between atoms: _495  and  _498
REMARK  187  A    between atoms: _498  and  _499
REMARK  188  A    between atoms: _509  and  _511
REMARK  189  A    between atoms: _511  and  _512
REMARK                            x       y       z     vdW  Elec       q    Type
REMARK                         _______ _______ _______ _____ _____    ______ ____
ROOT
ATOM      1  O   HOH     1      25.370  17.902  35.646  0.00  0.00    +0.000 OA
ENDROOT
TORSDOF 0
REMARK  Name = ../refined-set-2016/2gh9/2gh9_pocket.pdb
REMARK  189 active torsions:
REMARK  status: ('A' for Active; 'I' for Inactive)
REMARK    1  A    between atoms: _1  and  _3
REMARK    2  A    between atoms: _3  and  _4
REMARK    3  A    between atoms: _3  and  _6
REMARK    4  A    between atoms: _6  and  _7
REMARK    5  A    between atoms: _10  and  _12
REMARK    6  A    between atoms: _12  and  _13
REMARK    7  A    between atoms: _12  and  _15
REMARK    8  A    between atoms: _15  and  _16
REMARK    9  A    between atoms: _21  and  _23
REMARK   10  A    between atoms: _23  and  _24
REMARK   11  A    between atoms: _23  and  _26
REMARK   12  A    between atoms: _26  and  _27
REMARK   13  A    between atoms: _33  and  _35
REMARK   14  A    between atoms: _35  and  _36
REMARK   15  A    between atoms: _38  and  _40
REMARK   16  A    between atoms: _40  and  _41
REMARK   17  A    between atoms: _40  and  _43
REMARK   18  A    between atoms: _43  and  _44
REMARK   19  A    between atoms: _44  and  _45
REMARK   20  A    between atoms: _48  and  _50
REMARK   21  A    between atoms: _50  and  _51
REMARK   22  A    between atoms: _50  and  _53
REMARK   23  A    between atoms: _57  and  _58
REMARK   24  A    between atoms: _63  and  _65
REMARK   25  A    between atoms: _65  and  _66
REMARK   26  A    between atoms: _65  and  _68
REMARK   27  A    between atoms: _68  and  _69
REMARK   28  A    between atoms: _75  and  _77
REMARK   29  A    between atoms: _77  and  _78
REMARK   30  A    between atoms: _81  and  _83
REMARK   31  A    between atoms: _83  and  _84
REMARK   32  A    between atoms: _83  and  _86
REMARK   33  A    between atoms: _86  and  _87
REMARK   34  A    between atoms: _87  and  _88
REMARK   35  A    between atoms: _91  and  _93
REMARK   36  A    between atoms: _93  and  _94
REMARK   37  A    between atoms: _93  and  _96
REMARK   38  A    between atoms: _96  and  _97
REMARK   39  A    between atoms: _100  and  _102
REMARK   40  A    between atoms: _102  and  _103
REMARK   41  A    between atoms: _102  and  _105
REMARK   42  A    between atoms: _105  and  _106
REMARK   43  A    between atoms: _106  and  _107
REMARK   44  A    between atoms: _107  and  _108
REMARK   45  A    between atoms: _108  and  _109
REMARK   46  A    between atoms: _113  and  _115
REMARK   47  A    between atoms: _115  and  _116
REMARK   48  A    between atoms: _115  and  _118
REMARK   49  A    between atoms: _118  and  _119
REMARK   50  A    between atoms: _122  and  _124
REMARK   51  A    between atoms: _124  and  _125
REMARK   52  A    between atoms: _124  and  _127
REMARK   53  A    between atoms: _131  and  _132
REMARK   54  A    between atoms: _137  and  _139
REMARK   55  A    between atoms: _139  and  _140
REMARK   56  A    between atoms: _139  and  _142
REMARK   57  A    between atoms: _142  and  _143
REMARK   58  A    between atoms: _148  and  _150
REMARK   59  A    between atoms: _150  and  _151
REMARK   60  A    between atoms: _150  and  _153
REMARK   61  A    between atoms: _153  and  _154
REMARK   62  A    between atoms: _157  and  _159
REMARK   63  A    between atoms: _159  and  _160
REMARK   64  A    between atoms: _159  and  _162
REMARK   65  A    between atoms: _162  and  _163
REMARK   66  A    between atoms: _173  and  _175
REMARK   67  A    between atoms: _175  and  _176
REMARK   68  A    between atoms: _175  and  _178
REMARK   69  A    between atoms: _181  and  _183
REMARK   70  A    between atoms: _183  and  _184
REMARK   71  A    between atoms: _183  and  _186
REMARK   72  A    between atoms: _186  and  _187
REMARK   73  A    between atoms: _187  and  _188
REMARK   74  A    between atoms: _191  and  _193
REMARK   75  A    between atoms: _193  and  _194
REMARK   76  A    between atoms: _193  and  _196
REMARK   77  A    between atoms: _196  and  _197
REMARK   78  A    between atoms: _197  and  _198
REMARK   79  A    between atoms: _201  and  _203
REMARK   80  A    between atoms: _203  and  _204
REMARK   81  A    between atoms: _203  and  _206
REMARK   82  A    between atoms: _206  and  _207
REMARK   83  A    between atoms: _209  and  _211
REMARK   84  A    between atoms: _211  and  _212
REMARK   85  A    between atoms: _211  and  _214
REMARK   86  A    between atoms: _217  and  _219
REMARK   87  A    between atoms: _219  and  _220
REMARK   88  A    between atoms: _219  and  _222
REMARK   89  A    between atoms: _222  and  _223
REMARK   90  A    between atoms: _228  and  _230
REMARK   91  A    between atoms: _230  and  _231
REMARK   92  A    between atoms: _233  and  _235
REMARK   93  A    between atoms: _235  and  _236
REMARK   94  A    between atoms: _235  and  _238
REMARK   95  A    between atoms: _238  and  _239
REMARK   96  A    between atoms: _243  and  _244
REMARK   97  A    between atoms: _249  and  _251
REMARK   98  A    between atoms: _251  and  _252
REMARK   99  A    between atoms: _251  and  _254
REMARK  100  A    between atoms: _254  and  _255
REMARK  101  A    between atoms: _260  and  _261
REMARK  102  A    between atoms: _263  and  _265
REMARK  103  A    between atoms: _265  and  _266
REMARK  104  A    between atoms: _265  and  _268
REMARK  105  A    between atoms: _268  and  _269
REMARK  106  A    between atoms: _275  and  _277
REMARK  107  A    between atoms: _277  and  _278
REMARK  108  A    between atoms: _277  and  _280
REMARK  109  A    between atoms: _280  and  _281
REMARK  110  A    between atoms: _286  and  _288
REMARK  111  A    between atoms: _288  and  _289
REMARK  112  A    between atoms: _288  and  _291
REMARK  113  A    between atoms: _291  and  _292
REMARK  114  A    between atoms: _297  and  _298
REMARK  115  A    between atoms: _300  and  _302
REMARK  116  A    between atoms: _302  and  _303
REMARK  117  A    between atoms: _305  and  _307
REMARK  118  A    between atoms: _307  and  _308
REMARK  119  A    between atoms: _307  and  _310
REMARK  120  A    between atoms: _310  and  _311
REMARK  121  A    between atoms: _314  and  _316
REMARK  122  A    between atoms: _316  and  _317
REMARK  123  A    between atoms: _316  and  _319
REMARK  124  A    between atoms: _319  and  _320
REMARK  125  A    between atoms: _325  and  _327
REMARK  126  A    between atoms: _327  and  _328
REMARK  127  A    between atoms: _331  and  _332
REMARK  128  A    between atoms: _337  and  _339
REMARK  129  A    between atoms: _339  and  _340
REMARK  130  A    between atoms: _339  and  _342
REMARK  131  A    between atoms: _342  and  _343
REMARK  132  A    between atoms: _353  and  _355
REMARK  133  A    between atoms: _355  and  _356
REMARK  134  A    between atoms: _359  and  _361
REMARK  135  A    between atoms: _361  and  _362
REMARK  136  A    between atoms: _361  and  _364
REMARK  137  A    between atoms: _364  and  _365
REMARK  138  A    between atoms: _371  and  _373
REMARK  139  A    between atoms: _373  and  _374
REMARK  140  A    between atoms: _373  and  _376
REMARK  141  A    between atoms: _376  and  _377
REMARK  142  A    between atoms: _380  and  _382
REMARK  143  A    between atoms: _382  and  _383
REMARK  144  A    between atoms: _385  and  _387
REMARK  145  A    between atoms: _387  and  _388
REMARK  146  A    between atoms: _387  and  _390
REMARK  147  A    between atoms: _393  and  _395
REMARK  148  A    between atoms: _395  and  _396
REMARK  149  A    between atoms: _395  and  _398
REMARK  150  A    between atoms: _398  and  _399
REMARK  151  A    between atoms: _399  and  _400
REMARK  152  A    between atoms: _405  and  _407
REMARK  153  A    between atoms: _407  and  _408
REMARK  154  A    between atoms: _407  and  _410
REMARK  155  A    between atoms: _410  and  _411
REMARK  156  A    between atoms: _417  and  _419
REMARK  157  A    between atoms: _419  and  _420
REMARK  158  A    between atoms: _419  and  _422
REMARK  159  A    between atoms: _422  and  _423
REMARK  160  A    between atoms: _423  and  _424
REMARK  161  A    between atoms: _424  and  _425
REMARK  162  A    between atoms: _434  and  _436
REMARK  163  A    between atoms: _436  and  _437
REMARK  164  A    between atoms: _436  and  _439
REMARK  165  A    between atoms: _439  and  _440
REMARK  166  A    between atoms: _440  and  _441
REMARK  167  A    between atoms: _444  and  _445
REMARK  168  A    between atoms: _450  and  _452
REMARK  169  A    between atoms: _452  and  _453
REMARK  170  A    between atoms: _452  and  _455
REMARK  171  A    between atoms: _455  and  _456
REMARK  172  A    between atoms: _456  and  _457
REMARK  173  A    between atoms: _459  and  _461
REMARK  174  A    between atoms: _461  and  _462
REMARK  175  A    between atoms: _464  and  _466
REMARK  176  A    between atoms: _466  and  _467
REMARK  177  A    between atoms: _466  and  _469
REMARK  178  A    between atoms: _472  and  _474
REMARK  179  A    between atoms: _474  and  _475
REMARK  180  A    between atoms: _474  and  _477
REMARK  181  A    between atoms: _477  and  _478
REMARK  182  A    between atoms: _488  and  _490
REMARK  183  A    between atoms: _490  and  _491
REMARK  184  A    between atoms: _493  and  _495
REMARK  185  A    between atoms: _495  and  _496
REMARK  186  A    between atoms: _495  and  _498
REMARK  187  A    between atoms: _498  and  _499
REMARK  188  A    between atoms: _509  and  _511
REMARK  189  A    between atoms: _511  and  _512
REMARK                            x       y       z     vdW  Elec       q    Type
REMARK                         _______ _______ _______ _____ _____    ______ ____
ROOT
ATOM      1  O   HOH     1      20.086  14.466  32.027  0.00  0.00    +0.000 OA
ENDROOT
TORSDOF 0
REMARK  Name = ../refined-set-2016/2gh9/2gh9_pocket.pdb
REMARK  189 active torsions:
REMARK  status: ('A' for Active; 'I' for Inactive)
REMARK    1  A    between atoms: _1  and  _3
REMARK    2  A    between atoms: _3  and  _4
REMARK    3  A    between atoms: _3  and  _6
REMARK    4  A    between atoms: _6  and  _7
REMARK    5  A    between atoms: _10  and  _12
REMARK    6  A    between atoms: _12  and  _13
REMARK    7  A    between atoms: _12  and  _15
REMARK    8  A    between atoms: _15  and  _16
REMARK    9  A    between atoms: _21  and  _23
REMARK   10  A    between atoms: _23  and  _24
REMARK   11  A    between atoms: _23  and  _26
REMARK   12  A    between atoms: _26  and  _27
REMARK   13  A    between atoms: _33  and  _35
REMARK   14  A    between atoms: _35  and  _36
REMARK   15  A    between atoms: _38  and  _40
REMARK   16  A    between atoms: _40  and  _41
REMARK   17  A    between atoms: _40  and  _43
REMARK   18  A    between atoms: _43  and  _44
REMARK   19  A    between atoms: _44  and  _45
REMARK   20  A    between atoms: _48  and  _50
REMARK   21  A    between atoms: _50  and  _51
REMARK   22  A    between atoms: _50  and  _53
REMARK   23  A    between atoms: _57  and  _58
REMARK   24  A    between atoms: _63  and  _65
REMARK   25  A    between atoms: _65  and  _66
REMARK   26  A    between atoms: _65  and  _68
REMARK   27  A    between atoms: _68  and  _69
REMARK   28  A    between atoms: _75  and  _77
REMARK   29  A    between atoms: _77  and  _78
REMARK   30  A    between atoms: _81  and  _83
REMARK   31  A    between atoms: _83  and  _84
REMARK   32  A    between atoms: _83  and  _86
REMARK   33  A    between atoms: _86  and  _87
REMARK   34  A    between atoms: _87  and  _88
REMARK   35  A    between atoms: _91  and  _93
REMARK   36  A    between atoms: _93  and  _94
REMARK   37  A    between atoms: _93  and  _96
REMARK   38  A    between atoms: _96  and  _97
REMARK   39  A    between atoms: _100  and  _102
REMARK   40  A    between atoms: _102  and  _103
REMARK   41  A    between atoms: _102  and  _105
REMARK   42  A    between atoms: _105  and  _106
REMARK   43  A    between atoms: _106  and  _107
REMARK   44  A    between atoms: _107  and  _108
REMARK   45  A    between atoms: _108  and  _109
REMARK   46  A    between atoms: _113  and  _115
REMARK   47  A    between atoms: _115  and  _116
REMARK   48  A    between atoms: _115  and  _118
REMARK   49  A    between atoms: _118  and  _119
REMARK   50  A    between atoms: _122  and  _124
REMARK   51  A    between atoms: _124  and  _125
REMARK   52  A    between atoms: _124  and  _127
REMARK   53  A    between atoms: _131  and  _132
REMARK   54  A    between atoms: _137  and  _139
REMARK   55  A    between atoms: _139  and  _140
REMARK   56  A    between atoms: _139  and  _142
REMARK   57  A    between atoms: _142  and  _143
REMARK   58  A    between atoms: _148  and  _150
REMARK   59  A    between atoms: _150  and  _151
REMARK   60  A    between atoms: _150  and  _153
REMARK   61  A    between atoms: _153  and  _154
REMARK   62  A    between atoms: _157  and  _159
REMARK   63  A    between atoms: _159  and  _160
REMARK   64  A    between atoms: _159  and  _162
REMARK   65  A    between atoms: _162  and  _163
REMARK   66  A    between atoms: _173  and  _175
REMARK   67  A    between atoms: _175  and  _176
REMARK   68  A    between atoms: _175  and  _178
REMARK   69  A    between atoms: _181  and  _183
REMARK   70  A    between atoms: _183  and  _184
REMARK   71  A    between atoms: _183  and  _186
REMARK   72  A    between atoms: _186  and  _187
REMARK   73  A    between atoms: _187  and  _188
REMARK   74  A    between atoms: _191  and  _193
REMARK   75  A    between atoms: _193  and  _194
REMARK   76  A    between atoms: _193  and  _196
REMARK   77  A    between atoms: _196  and  _197
REMARK   78  A    between atoms: _197  and  _198
REMARK   79  A    between atoms: _201  and  _203
REMARK   80  A    between atoms: _203  and  _204
REMARK   81  A    between atoms: _203  and  _206
REMARK   82  A    between atoms: _206  and  _207
REMARK   83  A    between atoms: _209  and  _211
REMARK   84  A    between atoms: _211  and  _212
REMARK   85  A    between atoms: _211  and  _214
REMARK   86  A    between atoms: _217  and  _219
REMARK   87  A    between atoms: _219  and  _220
REMARK   88  A    between atoms: _219  and  _222
REMARK   89  A    between atoms: _222  and  _223
REMARK   90  A    between atoms: _228  and  _230
REMARK   91  A    between atoms: _230  and  _231
REMARK   92  A    between atoms: _233  and  _235
REMARK   93  A    between atoms: _235  and  _236
REMARK   94  A    between atoms: _235  and  _238
REMARK   95  A    between atoms: _238  and  _239
REMARK   96  A    between atoms: _243  and  _244
REMARK   97  A    between atoms: _249  and  _251
REMARK   98  A    between atoms: _251  and  _252
REMARK   99  A    between atoms: _251  and  _254
REMARK  100  A    between atoms: _254  and  _255
REMARK  101  A    between atoms: _260  and  _261
REMARK  102  A    between atoms: _263  and  _265
REMARK  103  A    between atoms: _265  and  _266
REMARK  104  A    between atoms: _265  and  _268
REMARK  105  A    between atoms: _268  and  _269
REMARK  106  A    between atoms: _275  and  _277
REMARK  107  A    between atoms: _277  and  _278
REMARK  108  A    between atoms: _277  and  _280
REMARK  109  A    between atoms: _280  and  _281
REMARK  110  A    between atoms: _286  and  _288
REMARK  111  A    between atoms: _288  and  _289
REMARK  112  A    between atoms: _288  and  _291
REMARK  113  A    between atoms: _291  and  _292
REMARK  114  A    between atoms: _297  and  _298
REMARK  115  A    between atoms: _300  and  _302
REMARK  116  A    between atoms: _302  and  _303
REMARK  117  A    between atoms: _305  and  _307
REMARK  118  A    between atoms: _307  and  _308
REMARK  119  A    between atoms: _307  and  _310
REMARK  120  A    between atoms: _310  and  _311
REMARK  121  A    between atoms: _314  and  _316
REMARK  122  A    between atoms: _316  and  _317
REMARK  123  A    between atoms: _316  and  _319
REMARK  124  A    between atoms: _319  and  _320
REMARK  125  A    between atoms: _325  and  _327
REMARK  126  A    between atoms: _327  and  _328
REMARK  127  A    between atoms: _331  and  _332
REMARK  128  A    between atoms: _337  and  _339
REMARK  129  A    between atoms: _339  and  _340
REMARK  130  A    between atoms: _339  and  _342
REMARK  131  A    between atoms: _342  and  _343
REMARK  132  A    between atoms: _353  and  _355
REMARK  133  A    between atoms: _355  and  _356
REMARK  134  A    between atoms: _359  and  _361
REMARK  135  A    between atoms: _361  and  _362
REMARK  136  A    between atoms: _361  and  _364
REMARK  137  A    between atoms: _364  and  _365
REMARK  138  A    between atoms: _371  and  _373
REMARK  139  A    between atoms: _373  and  _374
REMARK  140  A    between atoms: _373  and  _376
REMARK  141  A    between atoms: _376  and  _377
REMARK  142  A    between atoms: _380  and  _382
REMARK  143  A    between atoms: _382  and  _383
REMARK  144  A    between atoms: _385  and  _387
REMARK  145  A    between atoms: _387  and  _388
REMARK  146  A    between atoms: _387  and  _390
REMARK  147  A    between atoms: _393  and  _395
REMARK  148  A    between atoms: _395  and  _396
REMARK  149  A    between atoms: _395  and  _398
REMARK  150  A    between atoms: _398  and  _399
REMARK  151  A    between atoms: _399  and  _400
REMARK  152  A    between atoms: _405  and  _407
REMARK  153  A    between atoms: _407  and  _408
REMARK  154  A    between atoms: _407  and  _410
REMARK  155  A    between atoms: _410  and  _411
REMARK  156  A    between atoms: _417  and  _419
REMARK  157  A    between atoms: _419  and  _420
REMARK  158  A    between atoms: _419  and  _422
REMARK  159  A    between atoms: _422  and  _423
REMARK  160  A    between atoms: _423  and  _424
REMARK  161  A    between atoms: _424  and  _425
REMARK  162  A    between atoms: _434  and  _436
REMARK  163  A    between atoms: _436  and  _437
REMARK  164  A    between atoms: _436  and  _439
REMARK  165  A    between atoms: _439  and  _440
REMARK  166  A    between atoms: _440  and  _441
REMARK  167  A    between atoms: _444  and  _445
REMARK  168  A    between atoms: _450  and  _452
REMARK  169  A    between atoms: _452  and  _453
REMARK  170  A    between atoms: _452  and  _455
REMARK  171  A    between atoms: _455  and  _456
REMARK  172  A    between atoms: _456  and  _457
REMARK  173  A    between atoms: _459  and  _461
REMARK  174  A    between atoms: _461  and  _462
REMARK  175  A    between atoms: _464  and  _466
REMARK  176  A    between atoms: _466  and  _467
REMARK  177  A    between atoms: _466  and  _469
REMARK  178  A    between atoms: _472  and  _474
REMARK  179  A    between atoms: _474  and  _475
REMARK  180  A    between atoms: _474  and  _477
REMARK  181  A    between atoms: _477  and  _478
REMARK  182  A    between atoms: _488  and  _490
REMARK  183  A    between atoms: _490  and  _491
REMARK  184  A    between atoms: _493  and  _495
REMARK  185  A    between atoms: _495  and  _496
REMARK  186  A    between atoms: _495  and  _498
REMARK  187  A    between atoms: _498  and  _499
REMARK  188  A    between atoms: _509  and  _511
REMARK  189  A    between atoms: _511  and  _512
REMARK                            x       y       z     vdW  Elec       q    Type
REMARK                         _______ _______ _______ _____ _____    ______ ____
ROOT
ATOM      1  O   HOH     1      25.019  20.543  22.636  0.00  0.00    +0.000 OA
ENDROOT
TORSDOF 0
REMARK  Name = ../refined-set-2016/2gh9/2gh9_pocket.pdb
REMARK  189 active torsions:
REMARK  status: ('A' for Active; 'I' for Inactive)
REMARK    1  A    between atoms: _1  and  _3
REMARK    2  A    between atoms: _3  and  _4
REMARK    3  A    between atoms: _3  and  _6
REMARK    4  A    between atoms: _6  and  _7
REMARK    5  A    between atoms: _10  and  _12
REMARK    6  A    between atoms: _12  and  _13
REMARK    7  A    between atoms: _12  and  _15
REMARK    8  A    between atoms: _15  and  _16
REMARK    9  A    between atoms: _21  and  _23
REMARK   10  A    between atoms: _23  and  _24
REMARK   11  A    between atoms: _23  and  _26
REMARK   12  A    between atoms: _26  and  _27
REMARK   13  A    between atoms: _33  and  _35
REMARK   14  A    between atoms: _35  and  _36
REMARK   15  A    between atoms: _38  and  _40
REMARK   16  A    between atoms: _40  and  _41
REMARK   17  A    between atoms: _40  and  _43
REMARK   18  A    between atoms: _43  and  _44
REMARK   19  A    between atoms: _44  and  _45
REMARK   20  A    between atoms: _48  and  _50
REMARK   21  A    between atoms: _50  and  _51
REMARK   22  A    between atoms: _50  and  _53
REMARK   23  A    between atoms: _57  and  _58
REMARK   24  A    between atoms: _63  and  _65
REMARK   25  A    between atoms: _65  and  _66
REMARK   26  A    between atoms: _65  and  _68
REMARK   27  A    between atoms: _68  and  _69
REMARK   28  A    between atoms: _75  and  _77
REMARK   29  A    between atoms: _77  and  _78
REMARK   30  A    between atoms: _81  and  _83
REMARK   31  A    between atoms: _83  and  _84
REMARK   32  A    between atoms: _83  and  _86
REMARK   33  A    between atoms: _86  and  _87
REMARK   34  A    between atoms: _87  and  _88
REMARK   35  A    between atoms: _91  and  _93
REMARK   36  A    between atoms: _93  and  _94
REMARK   37  A    between atoms: _93  and  _96
REMARK   38  A    between atoms: _96  and  _97
REMARK   39  A    between atoms: _100  and  _102
REMARK   40  A    between atoms: _102  and  _103
REMARK   41  A    between atoms: _102  and  _105
REMARK   42  A    between atoms: _105  and  _106
REMARK   43  A    between atoms: _106  and  _107
REMARK   44  A    between atoms: _107  and  _108
REMARK   45  A    between atoms: _108  and  _109
REMARK   46  A    between atoms: _113  and  _115
REMARK   47  A    between atoms: _115  and  _116
REMARK   48  A    between atoms: _115  and  _118
REMARK   49  A    between atoms: _118  and  _119
REMARK   50  A    between atoms: _122  and  _124
REMARK   51  A    between atoms: _124  and  _125
REMARK   52  A    between atoms: _124  and  _127
REMARK   53  A    between atoms: _131  and  _132
REMARK   54  A    between atoms: _137  and  _139
REMARK   55  A    between atoms: _139  and  _140
REMARK   56  A    between atoms: _139  and  _142
REMARK   57  A    between atoms: _142  and  _143
REMARK   58  A    between atoms: _148  and  _150
REMARK   59  A    between atoms: _150  and  _151
REMARK   60  A    between atoms: _150  and  _153
REMARK   61  A    between atoms: _153  and  _154
REMARK   62  A    between atoms: _157  and  _159
REMARK   63  A    between atoms: _159  and  _160
REMARK   64  A    between atoms: _159  and  _162
REMARK   65  A    between atoms: _162  and  _163
REMARK   66  A    between atoms: _173  and  _175
REMARK   67  A    between atoms: _175  and  _176
REMARK   68  A    between atoms: _175  and  _178
REMARK   69  A    between atoms: _181  and  _183
REMARK   70  A    between atoms: _183  and  _184
REMARK   71  A    between atoms: _183  and  _186
REMARK   72  A    between atoms: _186  and  _187
REMARK   73  A    between atoms: _187  and  _188
REMARK   74  A    between atoms: _191  and  _193
REMARK   75  A    between atoms: _193  and  _194
REMARK   76  A    between atoms: _193  and  _196
REMARK   77  A    between atoms: _196  and  _197
REMARK   78  A    between atoms: _197  and  _198
REMARK   79  A    between atoms: _201  and  _203
REMARK   80  A    between atoms: _203  and  _204
REMARK   81  A    between atoms: _203  and  _206
REMARK   82  A    between atoms: _206  and  _207
REMARK   83  A    between atoms: _209  and  _211
REMARK   84  A    between atoms: _211  and  _212
REMARK   85  A    between atoms: _211  and  _214
REMARK   86  A    between atoms: _217  and  _219
REMARK   87  A    between atoms: _219  and  _220
REMARK   88  A    between atoms: _219  and  _222
REMARK   89  A    between atoms: _222  and  _223
REMARK   90  A    between atoms: _228  and  _230
REMARK   91  A    between atoms: _230  and  _231
REMARK   92  A    between atoms: _233  and  _235
REMARK   93  A    between atoms: _235  and  _236
REMARK   94  A    between atoms: _235  and  _238
REMARK   95  A    between atoms: _238  and  _239
REMARK   96  A    between atoms: _243  and  _244
REMARK   97  A    between atoms: _249  and  _251
REMARK   98  A    between atoms: _251  and  _252
REMARK   99  A    between atoms: _251  and  _254
REMARK  100  A    between atoms: _254  and  _255
REMARK  101  A    between atoms: _260  and  _261
REMARK  102  A    between atoms: _263  and  _265
REMARK  103  A    between atoms: _265  and  _266
REMARK  104  A    between atoms: _265  and  _268
REMARK  105  A    between atoms: _268  and  _269
REMARK  106  A    between atoms: _275  and  _277
REMARK  107  A    between atoms: _277  and  _278
REMARK  108  A    between atoms: _277  and  _280
REMARK  109  A    between atoms: _280  and  _281
REMARK  110  A    between atoms: _286  and  _288
REMARK  111  A    between atoms: _288  and  _289
REMARK  112  A    between atoms: _288  and  _291
REMARK  113  A    between atoms: _291  and  _292
REMARK  114  A    between atoms: _297  and  _298
REMARK  115  A    between atoms: _300  and  _302
REMARK  116  A    between atoms: _302  and  _303
REMARK  117  A    between atoms: _305  and  _307
REMARK  118  A    between atoms: _307  and  _308
REMARK  119  A    between atoms: _307  and  _310
REMARK  120  A    between atoms: _310  and  _311
REMARK  121  A    between atoms: _314  and  _316
REMARK  122  A    between atoms: _316  and  _317
REMARK  123  A    between atoms: _316  and  _319
REMARK  124  A    between atoms: _319  and  _320
REMARK  125  A    between atoms: _325  and  _327
REMARK  126  A    between atoms: _327  and  _328
REMARK  127  A    between atoms: _331  and  _332
REMARK  128  A    between atoms: _337  and  _339
REMARK  129  A    between atoms: _339  and  _340
REMARK  130  A    between atoms: _339  and  _342
REMARK  131  A    between atoms: _342  and  _343
REMARK  132  A    between atoms: _353  and  _355
REMARK  133  A    between atoms: _355  and  _356
REMARK  134  A    between atoms: _359  and  _361
REMARK  135  A    between atoms: _361  and  _362
REMARK  136  A    between atoms: _361  and  _364
REMARK  137  A    between atoms: _364  and  _365
REMARK  138  A    between atoms: _371  and  _373
REMARK  139  A    between atoms: _373  and  _374
REMARK  140  A    between atoms: _373  and  _376
REMARK  141  A    between atoms: _376  and  _377
REMARK  142  A    between atoms: _380  and  _382
REMARK  143  A    between atoms: _382  and  _383
REMARK  144  A    between atoms: _385  and  _387
REMARK  145  A    between atoms: _387  and  _388
REMARK  146  A    between atoms: _387  and  _390
REMARK  147  A    between atoms: _393  and  _395
REMARK  148  A    between atoms: _395  and  _396
REMARK  149  A    between atoms: _395  and  _398
REMARK  150  A    between atoms: _398  and  _399
REMARK  151  A    between atoms: _399  and  _400
REMARK  152  A    between atoms: _405  and  _407
REMARK  153  A    between atoms: _407  and  _408
REMARK  154  A    between atoms: _407  and  _410
REMARK  155  A    between atoms: _410  and  _411
REMARK  156  A    between atoms: _417  and  _419
REMARK  157  A    between atoms: _419  and  _420
REMARK  158  A    between atoms: _419  and  _422
REMARK  159  A    between atoms: _422  and  _423
REMARK  160  A    between atoms: _423  and  _424
REMARK  161  A    between atoms: _424  and  _425
REMARK  162  A    between atoms: _434  and  _436
REMARK  163  A    between atoms: _436  and  _437
REMARK  164  A    between atoms: _436  and  _439
REMARK  165  A    between atoms: _439  and  _440
REMARK  166  A    between atoms: _440  and  _441
REMARK  167  A    between atoms: _444  and  _445
REMARK  168  A    between atoms: _450  and  _452
REMARK  169  A    between atoms: _452  and  _453
REMARK  170  A    between atoms: _452  and  _455
REMARK  171  A    between atoms: _455  and  _456
REMARK  172  A    between atoms: _456  and  _457
REMARK  173  A    between atoms: _459  and  _461
REMARK  174  A    between atoms: _461  and  _462
REMARK  175  A    between atoms: _464  and  _466
REMARK  176  A    between atoms: _466  and  _467
REMARK  177  A    between atoms: _466  and  _469
REMARK  178  A    between atoms: _472  and  _474
REMARK  179  A    between atoms: _474  and  _475
REMARK  180  A    between atoms: _474  and  _477
REMARK  181  A    between atoms: _477  and  _478
REMARK  182  A    between atoms: _488  and  _490
REMARK  183  A    between atoms: _490  and  _491
REMARK  184  A    between atoms: _493  and  _495
REMARK  185  A    between atoms: _495  and  _496
REMARK  186  A    between atoms: _495  and  _498
REMARK  187  A    between atoms: _498  and  _499
REMARK  188  A    between atoms: _509  and  _511
REMARK  189  A    between atoms: _511  and  _512
REMARK                            x       y       z     vdW  Elec       q    Type
REMARK                         _______ _______ _______ _____ _____    ______ ____
ROOT
ATOM      1  O   HOH     1      30.177  23.580  19.764  0.00  0.00    +0.000 OA
ENDROOT
TORSDOF 0
REMARK  Name = ../refined-set-2016/2gh9/2gh9_pocket.pdb
REMARK  189 active torsions:
REMARK  status: ('A' for Active; 'I' for Inactive)
REMARK    1  A    between atoms: _1  and  _3
REMARK    2  A    between atoms: _3  and  _4
REMARK    3  A    between atoms: _3  and  _6
REMARK    4  A    between atoms: _6  and  _7
REMARK    5  A    between atoms: _10  and  _12
REMARK    6  A    between atoms: _12  and  _13
REMARK    7  A    between atoms: _12  and  _15
REMARK    8  A    between atoms: _15  and  _16
REMARK    9  A    between atoms: _21  and  _23
REMARK   10  A    between atoms: _23  and  _24
REMARK   11  A    between atoms: _23  and  _26
REMARK   12  A    between atoms: _26  and  _27
REMARK   13  A    between atoms: _33  and  _35
REMARK   14  A    between atoms: _35  and  _36
REMARK   15  A    between atoms: _38  and  _40
REMARK   16  A    between atoms: _40  and  _41
REMARK   17  A    between atoms: _40  and  _43
REMARK   18  A    between atoms: _43  and  _44
REMARK   19  A    between atoms: _44  and  _45
REMARK   20  A    between atoms: _48  and  _50
REMARK   21  A    between atoms: _50  and  _51
REMARK   22  A    between atoms: _50  and  _53
REMARK   23  A    between atoms: _57  and  _58
REMARK   24  A    between atoms: _63  and  _65
REMARK   25  A    between atoms: _65  and  _66
REMARK   26  A    between atoms: _65  and  _68
REMARK   27  A    between atoms: _68  and  _69
REMARK   28  A    between atoms: _75  and  _77
REMARK   29  A    between atoms: _77  and  _78
REMARK   30  A    between atoms: _81  and  _83
REMARK   31  A    between atoms: _83  and  _84
REMARK   32  A    between atoms: _83  and  _86
REMARK   33  A    between atoms: _86  and  _87
REMARK   34  A    between atoms: _87  and  _88
REMARK   35  A    between atoms: _91  and  _93
REMARK   36  A    between atoms: _93  and  _94
REMARK   37  A    between atoms: _93  and  _96
REMARK   38  A    between atoms: _96  and  _97
REMARK   39  A    between atoms: _100  and  _102
REMARK   40  A    between atoms: _102  and  _103
REMARK   41  A    between atoms: _102  and  _105
REMARK   42  A    between atoms: _105  and  _106
REMARK   43  A    between atoms: _106  and  _107
REMARK   44  A    between atoms: _107  and  _108
REMARK   45  A    between atoms: _108  and  _109
REMARK   46  A    between atoms: _113  and  _115
REMARK   47  A    between atoms: _115  and  _116
REMARK   48  A    between atoms: _115  and  _118
REMARK   49  A    between atoms: _118  and  _119
REMARK   50  A    between atoms: _122  and  _124
REMARK   51  A    between atoms: _124  and  _125
REMARK   52  A    between atoms: _124  and  _127
REMARK   53  A    between atoms: _131  and  _132
REMARK   54  A    between atoms: _137  and  _139
REMARK   55  A    between atoms: _139  and  _140
REMARK   56  A    between atoms: _139  and  _142
REMARK   57  A    between atoms: _142  and  _143
REMARK   58  A    between atoms: _148  and  _150
REMARK   59  A    between atoms: _150  and  _151
REMARK   60  A    between atoms: _150  and  _153
REMARK   61  A    between atoms: _153  and  _154
REMARK   62  A    between atoms: _157  and  _159
REMARK   63  A    between atoms: _159  and  _160
REMARK   64  A    between atoms: _159  and  _162
REMARK   65  A    between atoms: _162  and  _163
REMARK   66  A    between atoms: _173  and  _175
REMARK   67  A    between atoms: _175  and  _176
REMARK   68  A    between atoms: _175  and  _178
REMARK   69  A    between atoms: _181  and  _183
REMARK   70  A    between atoms: _183  and  _184
REMARK   71  A    between atoms: _183  and  _186
REMARK   72  A    between atoms: _186  and  _187
REMARK   73  A    between atoms: _187  and  _188
REMARK   74  A    between atoms: _191  and  _193
REMARK   75  A    between atoms: _193  and  _194
REMARK   76  A    between atoms: _193  and  _196
REMARK   77  A    between atoms: _196  and  _197
REMARK   78  A    between atoms: _197  and  _198
REMARK   79  A    between atoms: _201  and  _203
REMARK   80  A    between atoms: _203  and  _204
REMARK   81  A    between atoms: _203  and  _206
REMARK   82  A    between atoms: _206  and  _207
REMARK   83  A    between atoms: _209  and  _211
REMARK   84  A    between atoms: _211  and  _212
REMARK   85  A    between atoms: _211  and  _214
REMARK   86  A    between atoms: _217  and  _219
REMARK   87  A    between atoms: _219  and  _220
REMARK   88  A    between atoms: _219  and  _222
REMARK   89  A    between atoms: _222  and  _223
REMARK   90  A    between atoms: _228  and  _230
REMARK   91  A    between atoms: _230  and  _231
REMARK   92  A    between atoms: _233  and  _235
REMARK   93  A    between atoms: _235  and  _236
REMARK   94  A    between atoms: _235  and  _238
REMARK   95  A    between atoms: _238  and  _239
REMARK   96  A    between atoms: _243  and  _244
REMARK   97  A    between atoms: _249  and  _251
REMARK   98  A    between atoms: _251  and  _252
REMARK   99  A    between atoms: _251  and  _254
REMARK  100  A    between atoms: _254  and  _255
REMARK  101  A    between atoms: _260  and  _261
REMARK  102  A    between atoms: _263  and  _265
REMARK  103  A    between atoms: _265  and  _266
REMARK  104  A    between atoms: _265  and  _268
REMARK  105  A    between atoms: _268  and  _269
REMARK  106  A    between atoms: _275  and  _277
REMARK  107  A    between atoms: _277  and  _278
REMARK  108  A    between atoms: _277  and  _280
REMARK  109  A    between atoms: _280  and  _281
REMARK  110  A    between atoms: _286  and  _288
REMARK  111  A    between atoms: _288  and  _289
REMARK  112  A    between atoms: _288  and  _291
REMARK  113  A    between atoms: _291  and  _292
REMARK  114  A    between atoms: _297  and  _298
REMARK  115  A    between atoms: _300  and  _302
REMARK  116  A    between atoms: _302  and  _303
REMARK  117  A    between atoms: _305  and  _307
REMARK  118  A    between atoms: _307  and  _308
REMARK  119  A    between atoms: _307  and  _310
REMARK  120  A    between atoms: _310  and  _311
REMARK  121  A    between atoms: _314  and  _316
REMARK  122  A    between atoms: _316  and  _317
REMARK  123  A    between atoms: _316  and  _319
REMARK  124  A    between atoms: _319  and  _320
REMARK  125  A    between atoms: _325  and  _327
REMARK  126  A    between atoms: _327  and  _328
REMARK  127  A    between atoms: _331  and  _332
REMARK  128  A    between atoms: _337  and  _339
REMARK  129  A    between atoms: _339  and  _340
REMARK  130  A    between atoms: _339  and  _342
REMARK  131  A    between atoms: _342  and  _343
REMARK  132  A    between atoms: _353  and  _355
REMARK  133  A    between atoms: _355  and  _356
REMARK  134  A    between atoms: _359  and  _361
REMARK  135  A    between atoms: _361  and  _362
REMARK  136  A    between atoms: _361  and  _364
REMARK  137  A    between atoms: _364  and  _365
REMARK  138  A    between atoms: _371  and  _373
REMARK  139  A    between atoms: _373  and  _374
REMARK  140  A    between atoms: _373  and  _376
REMARK  141  A    between atoms: _376  and  _377
REMARK  142  A    between atoms: _380  and  _382
REMARK  143  A    between atoms: _382  and  _383
REMARK  144  A    between atoms: _385  and  _387
REMARK  145  A    between atoms: _387  and  _388
REMARK  146  A    between atoms: _387  and  _390
REMARK  147  A    between atoms: _393  and  _395
REMARK  148  A    between atoms: _395  and  _396
REMARK  149  A    between atoms: _395  and  _398
REMARK  150  A    between atoms: _398  and  _399
REMARK  151  A    between atoms: _399  and  _400
REMARK  152  A    between atoms: _405  and  _407
REMARK  153  A    between atoms: _407  and  _408
REMARK  154  A    between atoms: _407  and  _410
REMARK  155  A    between atoms: _410  and  _411
REMARK  156  A    between atoms: _417  and  _419
REMARK  157  A    between atoms: _419  and  _420
REMARK  158  A    between atoms: _419  and  _422
REMARK  159  A    between atoms: _422  and  _423
REMARK  160  A    between atoms: _423  and  _424
REMARK  161  A    between atoms: _424  and  _425
REMARK  162  A    between atoms: _434  and  _436
REMARK  163  A    between atoms: _436  and  _437
REMARK  164  A    between atoms: _436  and  _439
REMARK  165  A    between atoms: _439  and  _440
REMARK  166  A    between atoms: _440  and  _441
REMARK  167  A    between atoms: _444  and  _445
REMARK  168  A    between atoms: _450  and  _452
REMARK  169  A    between atoms: _452  and  _453
REMARK  170  A    between atoms: _452  and  _455
REMARK  171  A    between atoms: _455  and  _456
REMARK  172  A    between atoms: _456  and  _457
REMARK  173  A    between atoms: _459  and  _461
REMARK  174  A    between atoms: _461  and  _462
REMARK  175  A    between atoms: _464  and  _466
REMARK  176  A    between atoms: _466  and  _467
REMARK  177  A    between atoms: _466  and  _469
REMARK  178  A    between atoms: _472  and  _474
REMARK  179  A    between atoms: _474  and  _475
REMARK  180  A    between atoms: _474  and  _477
REMARK  181  A    between atoms: _477  and  _478
REMARK  182  A    between atoms: _488  and  _490
REMARK  183  A    between atoms: _490  and  _491
REMARK  184  A    between atoms: _493  and  _495
REMARK  185  A    between atoms: _495  and  _496
REMARK  186  A    between atoms: _495  and  _498
REMARK  187  A    between atoms: _498  and  _499
REMARK  188  A    between atoms: _509  and  _511
REMARK  189  A    between atoms: _511  and  _512
REMARK                            x       y       z     vdW  Elec       q    Type
REMARK                         _______ _______ _______ _____ _____    ______ ____
ROOT
ATOM      1  O   HOH     1      25.304  21.633  18.548  0.00  0.00    +0.000 OA
ENDROOT
TORSDOF 0
REMARK  Name = ../refined-set-2016/2gh9/2gh9_pocket.pdb
REMARK  189 active torsions:
REMARK  status: ('A' for Active; 'I' for Inactive)
REMARK    1  A    between atoms: _1  and  _3
REMARK    2  A    between atoms: _3  and  _4
REMARK    3  A    between atoms: _3  and  _6
REMARK    4  A    between atoms: _6  and  _7
REMARK    5  A    between atoms: _10  and  _12
REMARK    6  A    between atoms: _12  and  _13
REMARK    7  A    between atoms: _12  and  _15
REMARK    8  A    between atoms: _15  and  _16
REMARK    9  A    between atoms: _21  and  _23
REMARK   10  A    between atoms: _23  and  _24
REMARK   11  A    between atoms: _23  and  _26
REMARK   12  A    between atoms: _26  and  _27
REMARK   13  A    between atoms: _33  and  _35
REMARK   14  A    between atoms: _35  and  _36
REMARK   15  A    between atoms: _38  and  _40
REMARK   16  A    between atoms: _40  and  _41
REMARK   17  A    between atoms: _40  and  _43
REMARK   18  A    between atoms: _43  and  _44
REMARK   19  A    between atoms: _44  and  _45
REMARK   20  A    between atoms: _48  and  _50
REMARK   21  A    between atoms: _50  and  _51
REMARK   22  A    between atoms: _50  and  _53
REMARK   23  A    between atoms: _57  and  _58
REMARK   24  A    between atoms: _63  and  _65
REMARK   25  A    between atoms: _65  and  _66
REMARK   26  A    between atoms: _65  and  _68
REMARK   27  A    between atoms: _68  and  _69
REMARK   28  A    between atoms: _75  and  _77
REMARK   29  A    between atoms: _77  and  _78
REMARK   30  A    between atoms: _81  and  _83
REMARK   31  A    between atoms: _83  and  _84
REMARK   32  A    between atoms: _83  and  _86
REMARK   33  A    between atoms: _86  and  _87
REMARK   34  A    between atoms: _87  and  _88
REMARK   35  A    between atoms: _91  and  _93
REMARK   36  A    between atoms: _93  and  _94
REMARK   37  A    between atoms: _93  and  _96
REMARK   38  A    between atoms: _96  and  _97
REMARK   39  A    between atoms: _100  and  _102
REMARK   40  A    between atoms: _102  and  _103
REMARK   41  A    between atoms: _102  and  _105
REMARK   42  A    between atoms: _105  and  _106
REMARK   43  A    between atoms: _106  and  _107
REMARK   44  A    between atoms: _107  and  _108
REMARK   45  A    between atoms: _108  and  _109
REMARK   46  A    between atoms: _113  and  _115
REMARK   47  A    between atoms: _115  and  _116
REMARK   48  A    between atoms: _115  and  _118
REMARK   49  A    between atoms: _118  and  _119
REMARK   50  A    between atoms: _122  and  _124
REMARK   51  A    between atoms: _124  and  _125
REMARK   52  A    between atoms: _124  and  _127
REMARK   53  A    between atoms: _131  and  _132
REMARK   54  A    between atoms: _137  and  _139
REMARK   55  A    between atoms: _139  and  _140
REMARK   56  A    between atoms: _139  and  _142
REMARK   57  A    between atoms: _142  and  _143
REMARK   58  A    between atoms: _148  and  _150
REMARK   59  A    between atoms: _150  and  _151
REMARK   60  A    between atoms: _150  and  _153
REMARK   61  A    between atoms: _153  and  _154
REMARK   62  A    between atoms: _157  and  _159
REMARK   63  A    between atoms: _159  and  _160
REMARK   64  A    between atoms: _159  and  _162
REMARK   65  A    between atoms: _162  and  _163
REMARK   66  A    between atoms: _173  and  _175
REMARK   67  A    between atoms: _175  and  _176
REMARK   68  A    between atoms: _175  and  _178
REMARK   69  A    between atoms: _181  and  _183
REMARK   70  A    between atoms: _183  and  _184
REMARK   71  A    between atoms: _183  and  _186
REMARK   72  A    between atoms: _186  and  _187
REMARK   73  A    between atoms: _187  and  _188
REMARK   74  A    between atoms: _191  and  _193
REMARK   75  A    between atoms: _193  and  _194
REMARK   76  A    between atoms: _193  and  _196
REMARK   77  A    between atoms: _196  and  _197
REMARK   78  A    between atoms: _197  and  _198
REMARK   79  A    between atoms: _201  and  _203
REMARK   80  A    between atoms: _203  and  _204
REMARK   81  A    between atoms: _203  and  _206
REMARK   82  A    between atoms: _206  and  _207
REMARK   83  A    between atoms: _209  and  _211
REMARK   84  A    between atoms: _211  and  _212
REMARK   85  A    between atoms: _211  and  _214
REMARK   86  A    between atoms: _217  and  _219
REMARK   87  A    between atoms: _219  and  _220
REMARK   88  A    between atoms: _219  and  _222
REMARK   89  A    between atoms: _222  and  _223
REMARK   90  A    between atoms: _228  and  _230
REMARK   91  A    between atoms: _230  and  _231
REMARK   92  A    between atoms: _233  and  _235
REMARK   93  A    between atoms: _235  and  _236
REMARK   94  A    between atoms: _235  and  _238
REMARK   95  A    between atoms: _238  and  _239
REMARK   96  A    between atoms: _243  and  _244
REMARK   97  A    between atoms: _249  and  _251
REMARK   98  A    between atoms: _251  and  _252
REMARK   99  A    between atoms: _251  and  _254
REMARK  100  A    between atoms: _254  and  _255
REMARK  101  A    between atoms: _260  and  _261
REMARK  102  A    between atoms: _263  and  _265
REMARK  103  A    between atoms: _265  and  _266
REMARK  104  A    between atoms: _265  and  _268
REMARK  105  A    between atoms: _268  and  _269
REMARK  106  A    between atoms: _275  and  _277
REMARK  107  A    between atoms: _277  and  _278
REMARK  108  A    between atoms: _277  and  _280
REMARK  109  A    between atoms: _280  and  _281
REMARK  110  A    between atoms: _286  and  _288
REMARK  111  A    between atoms: _288  and  _289
REMARK  112  A    between atoms: _288  and  _291
REMARK  113  A    between atoms: _291  and  _292
REMARK  114  A    between atoms: _297  and  _298
REMARK  115  A    between atoms: _300  and  _302
REMARK  116  A    between atoms: _302  and  _303
REMARK  117  A    between atoms: _305  and  _307
REMARK  118  A    between atoms: _307  and  _308
REMARK  119  A    between atoms: _307  and  _310
REMARK  120  A    between atoms: _310  and  _311
REMARK  121  A    between atoms: _314  and  _316
REMARK  122  A    between atoms: _316  and  _317
REMARK  123  A    between atoms: _316  and  _319
REMARK  124  A    between atoms: _319  and  _320
REMARK  125  A    between atoms: _325  and  _327
REMARK  126  A    between atoms: _327  and  _328
REMARK  127  A    between atoms: _331  and  _332
REMARK  128  A    between atoms: _337  and  _339
REMARK  129  A    between atoms: _339  and  _340
REMARK  130  A    between atoms: _339  and  _342
REMARK  131  A    between atoms: _342  and  _343
REMARK  132  A    between atoms: _353  and  _355
REMARK  133  A    between atoms: _355  and  _356
REMARK  134  A    between atoms: _359  and  _361
REMARK  135  A    between atoms: _361  and  _362
REMARK  136  A    between atoms: _361  and  _364
REMARK  137  A    between atoms: _364  and  _365
REMARK  138  A    between atoms: _371  and  _373
REMARK  139  A    between atoms: _373  and  _374
REMARK  140  A    between atoms: _373  and  _376
REMARK  141  A    between atoms: _376  and  _377
REMARK  142  A    between atoms: _380  and  _382
REMARK  143  A    between atoms: _382  and  _383
REMARK  144  A    between atoms: _385  and  _387
REMARK  145  A    between atoms: _387  and  _388
REMARK  146  A    between atoms: _387  and  _390
REMARK  147  A    between atoms: _393  and  _395
REMARK  148  A    between atoms: _395  and  _396
REMARK  149  A    between atoms: _395  and  _398
REMARK  150  A    between atoms: _398  and  _399
REMARK  151  A    between atoms: _399  and  _400
REMARK  152  A    between atoms: _405  and  _407
REMARK  153  A    between atoms: _407  and  _408
REMARK  154  A    between atoms: _407  and  _410
REMARK  155  A    between atoms: _410  and  _411
REMARK  156  A    between atoms: _417  and  _419
REMARK  157  A    between atoms: _419  and  _420
REMARK  158  A    between atoms: _419  and  _422
REMARK  159  A    between atoms: _422  and  _423
REMARK  160  A    between atoms: _423  and  _424
REMARK  161  A    between atoms: _424  and  _425
REMARK  162  A    between atoms: _434  and  _436
REMARK  163  A    between atoms: _436  and  _437
REMARK  164  A    between atoms: _436  and  _439
REMARK  165  A    between atoms: _439  and  _440
REMARK  166  A    between atoms: _440  and  _441
REMARK  167  A    between atoms: _444  and  _445
REMARK  168  A    between atoms: _450  and  _452
REMARK  169  A    between atoms: _452  and  _453
REMARK  170  A    between atoms: _452  and  _455
REMARK  171  A    between atoms: _455  and  _456
REMARK  172  A    between atoms: _456  and  _457
REMARK  173  A    between atoms: _459  and  _461
REMARK  174  A    between atoms: _461  and  _462
REMARK  175  A    between atoms: _464  and  _466
REMARK  176  A    between atoms: _466  and  _467
REMARK  177  A    between atoms: _466  and  _469
REMARK  178  A    between atoms: _472  and  _474
REMARK  179  A    between atoms: _474  and  _475
REMARK  180  A    between atoms: _474  and  _477
REMARK  181  A    between atoms: _477  and  _478
REMARK  182  A    between atoms: _488  and  _490
REMARK  183  A    between atoms: _490  and  _491
REMARK  184  A    between atoms: _493  and  _495
REMARK  185  A    between atoms: _495  and  _496
REMARK  186  A    between atoms: _495  and  _498
REMARK  187  A    between atoms: _498  and  _499
REMARK  188  A    between atoms: _509  and  _511
REMARK  189  A    between atoms: _511  and  _512
REMARK                            x       y       z     vdW  Elec       q    Type
REMARK                         _______ _______ _______ _____ _____    ______ ____
ROOT
ATOM      1  O   HOH     1      21.373  17.305  30.976  0.00  0.00    +0.000 OA
ENDROOT
TORSDOF 0
REMARK  Name = ../refined-set-2016/2gh9/2gh9_pocket.pdb
REMARK  189 active torsions:
REMARK  status: ('A' for Active; 'I' for Inactive)
REMARK    1  A    between atoms: _1  and  _3
REMARK    2  A    between atoms: _3  and  _4
REMARK    3  A    between atoms: _3  and  _6
REMARK    4  A    between atoms: _6  and  _7
REMARK    5  A    between atoms: _10  and  _12
REMARK    6  A    between atoms: _12  and  _13
REMARK    7  A    between atoms: _12  and  _15
REMARK    8  A    between atoms: _15  and  _16
REMARK    9  A    between atoms: _21  and  _23
REMARK   10  A    between atoms: _23  and  _24
REMARK   11  A    between atoms: _23  and  _26
REMARK   12  A    between atoms: _26  and  _27
REMARK   13  A    between atoms: _33  and  _35
REMARK   14  A    between atoms: _35  and  _36
REMARK   15  A    between atoms: _38  and  _40
REMARK   16  A    between atoms: _40  and  _41
REMARK   17  A    between atoms: _40  and  _43
REMARK   18  A    between atoms: _43  and  _44
REMARK   19  A    between atoms: _44  and  _45
REMARK   20  A    between atoms: _48  and  _50
REMARK   21  A    between atoms: _50  and  _51
REMARK   22  A    between atoms: _50  and  _53
REMARK   23  A    between atoms: _57  and  _58
REMARK   24  A    between atoms: _63  and  _65
REMARK   25  A    between atoms: _65  and  _66
REMARK   26  A    between atoms: _65  and  _68
REMARK   27  A    between atoms: _68  and  _69
REMARK   28  A    between atoms: _75  and  _77
REMARK   29  A    between atoms: _77  and  _78
REMARK   30  A    between atoms: _81  and  _83
REMARK   31  A    between atoms: _83  and  _84
REMARK   32  A    between atoms: _83  and  _86
REMARK   33  A    between atoms: _86  and  _87
REMARK   34  A    between atoms: _87  and  _88
REMARK   35  A    between atoms: _91  and  _93
REMARK   36  A    between atoms: _93  and  _94
REMARK   37  A    between atoms: _93  and  _96
REMARK   38  A    between atoms: _96  and  _97
REMARK   39  A    between atoms: _100  and  _102
REMARK   40  A    between atoms: _102  and  _103
REMARK   41  A    between atoms: _102  and  _105
REMARK   42  A    between atoms: _105  and  _106
REMARK   43  A    between atoms: _106  and  _107
REMARK   44  A    between atoms: _107  and  _108
REMARK   45  A    between atoms: _108  and  _109
REMARK   46  A    between atoms: _113  and  _115
REMARK   47  A    between atoms: _115  and  _116
REMARK   48  A    between atoms: _115  and  _118
REMARK   49  A    between atoms: _118  and  _119
REMARK   50  A    between atoms: _122  and  _124
REMARK   51  A    between atoms: _124  and  _125
REMARK   52  A    between atoms: _124  and  _127
REMARK   53  A    between atoms: _131  and  _132
REMARK   54  A    between atoms: _137  and  _139
REMARK   55  A    between atoms: _139  and  _140
REMARK   56  A    between atoms: _139  and  _142
REMARK   57  A    between atoms: _142  and  _143
REMARK   58  A    between atoms: _148  and  _150
REMARK   59  A    between atoms: _150  and  _151
REMARK   60  A    between atoms: _150  and  _153
REMARK   61  A    between atoms: _153  and  _154
REMARK   62  A    between atoms: _157  and  _159
REMARK   63  A    between atoms: _159  and  _160
REMARK   64  A    between atoms: _159  and  _162
REMARK   65  A    between atoms: _162  and  _163
REMARK   66  A    between atoms: _173  and  _175
REMARK   67  A    between atoms: _175  and  _176
REMARK   68  A    between atoms: _175  and  _178
REMARK   69  A    between atoms: _181  and  _183
REMARK   70  A    between atoms: _183  and  _184
REMARK   71  A    between atoms: _183  and  _186
REMARK   72  A    between atoms: _186  and  _187
REMARK   73  A    between atoms: _187  and  _188
REMARK   74  A    between atoms: _191  and  _193
REMARK   75  A    between atoms: _193  and  _194
REMARK   76  A    between atoms: _193  and  _196
REMARK   77  A    between atoms: _196  and  _197
REMARK   78  A    between atoms: _197  and  _198
REMARK   79  A    between atoms: _201  and  _203
REMARK   80  A    between atoms: _203  and  _204
REMARK   81  A    between atoms: _203  and  _206
REMARK   82  A    between atoms: _206  and  _207
REMARK   83  A    between atoms: _209  and  _211
REMARK   84  A    between atoms: _211  and  _212
REMARK   85  A    between atoms: _211  and  _214
REMARK   86  A    between atoms: _217  and  _219
REMARK   87  A    between atoms: _219  and  _220
REMARK   88  A    between atoms: _219  and  _222
REMARK   89  A    between atoms: _222  and  _223
REMARK   90  A    between atoms: _228  and  _230
REMARK   91  A    between atoms: _230  and  _231
REMARK   92  A    between atoms: _233  and  _235
REMARK   93  A    between atoms: _235  and  _236
REMARK   94  A    between atoms: _235  and  _238
REMARK   95  A    between atoms: _238  and  _239
REMARK   96  A    between atoms: _243  and  _244
REMARK   97  A    between atoms: _249  and  _251
REMARK   98  A    between atoms: _251  and  _252
REMARK   99  A    between atoms: _251  and  _254
REMARK  100  A    between atoms: _254  and  _255
REMARK  101  A    between atoms: _260  and  _261
REMARK  102  A    between atoms: _263  and  _265
REMARK  103  A    between atoms: _265  and  _266
REMARK  104  A    between atoms: _265  and  _268
REMARK  105  A    between atoms: _268  and  _269
REMARK  106  A    between atoms: _275  and  _277
REMARK  107  A    between atoms: _277  and  _278
REMARK  108  A    between atoms: _277  and  _280
REMARK  109  A    between atoms: _280  and  _281
REMARK  110  A    between atoms: _286  and  _288
REMARK  111  A    between atoms: _288  and  _289
REMARK  112  A    between atoms: _288  and  _291
REMARK  113  A    between atoms: _291  and  _292
REMARK  114  A    between atoms: _297  and  _298
REMARK  115  A    between atoms: _300  and  _302
REMARK  116  A    between atoms: _302  and  _303
REMARK  117  A    between atoms: _305  and  _307
REMARK  118  A    between atoms: _307  and  _308
REMARK  119  A    between atoms: _307  and  _310
REMARK  120  A    between atoms: _310  and  _311
REMARK  121  A    between atoms: _314  and  _316
REMARK  122  A    between atoms: _316  and  _317
REMARK  123  A    between atoms: _316  and  _319
REMARK  124  A    between atoms: _319  and  _320
REMARK  125  A    between atoms: _325  and  _327
REMARK  126  A    between atoms: _327  and  _328
REMARK  127  A    between atoms: _331  and  _332
REMARK  128  A    between atoms: _337  and  _339
REMARK  129  A    between atoms: _339  and  _340
REMARK  130  A    between atoms: _339  and  _342
REMARK  131  A    between atoms: _342  and  _343
REMARK  132  A    between atoms: _353  and  _355
REMARK  133  A    between atoms: _355  and  _356
REMARK  134  A    between atoms: _359  and  _361
REMARK  135  A    between atoms: _361  and  _362
REMARK  136  A    between atoms: _361  and  _364
REMARK  137  A    between atoms: _364  and  _365
REMARK  138  A    between atoms: _371  and  _373
REMARK  139  A    between atoms: _373  and  _374
REMARK  140  A    between atoms: _373  and  _376
REMARK  141  A    between atoms: _376  and  _377
REMARK  142  A    between atoms: _380  and  _382
REMARK  143  A    between atoms: _382  and  _383
REMARK  144  A    between atoms: _385  and  _387
REMARK  145  A    between atoms: _387  and  _388
REMARK  146  A    between atoms: _387  and  _390
REMARK  147  A    between atoms: _393  and  _395
REMARK  148  A    between atoms: _395  and  _396
REMARK  149  A    between atoms: _395  and  _398
REMARK  150  A    between atoms: _398  and  _399
REMARK  151  A    between atoms: _399  and  _400
REMARK  152  A    between atoms: _405  and  _407
REMARK  153  A    between atoms: _407  and  _408
REMARK  154  A    between atoms: _407  and  _410
REMARK  155  A    between atoms: _410  and  _411
REMARK  156  A    between atoms: _417  and  _419
REMARK  157  A    between atoms: _419  and  _420
REMARK  158  A    between atoms: _419  and  _422
REMARK  159  A    between atoms: _422  and  _423
REMARK  160  A    between atoms: _423  and  _424
REMARK  161  A    between atoms: _424  and  _425
REMARK  162  A    between atoms: _434  and  _436
REMARK  163  A    between atoms: _436  and  _437
REMARK  164  A    between atoms: _436  and  _439
REMARK  165  A    between atoms: _439  and  _440
REMARK  166  A    between atoms: _440  and  _441
REMARK  167  A    between atoms: _444  and  _445
REMARK  168  A    between atoms: _450  and  _452
REMARK  169  A    between atoms: _452  and  _453
REMARK  170  A    between atoms: _452  and  _455
REMARK  171  A    between atoms: _455  and  _456
REMARK  172  A    between atoms: _456  and  _457
REMARK  173  A    between atoms: _459  and  _461
REMARK  174  A    between atoms: _461  and  _462
REMARK  175  A    between atoms: _464  and  _466
REMARK  176  A    between atoms: _466  and  _467
REMARK  177  A    between atoms: _466  and  _469
REMARK  178  A    between atoms: _472  and  _474
REMARK  179  A    between atoms: _474  and  _475
REMARK  180  A    between atoms: _474  and  _477
REMARK  181  A    between atoms: _477  and  _478
REMARK  182  A    between atoms: _488  and  _490
REMARK  183  A    between atoms: _490  and  _491
REMARK  184  A    between atoms: _493  and  _495
REMARK  185  A    between atoms: _495  and  _496
REMARK  186  A    between atoms: _495  and  _498
REMARK  187  A    between atoms: _498  and  _499
REMARK  188  A    between atoms: _509  and  _511
REMARK  189  A    between atoms: _511  and  _512
REMARK                            x       y       z     vdW  Elec       q    Type
REMARK                         _______ _______ _______ _____ _____    ______ ____
ROOT
ATOM      1  O   HOH     1      18.274  14.730  33.825  0.00  0.00    +0.000 OA
ENDROOT
TORSDOF 0
REMARK  Name = ../refined-set-2016/2gh9/2gh9_pocket.pdb
REMARK  189 active torsions:
REMARK  status: ('A' for Active; 'I' for Inactive)
REMARK    1  A    between atoms: _1  and  _3
REMARK    2  A    between atoms: _3  and  _4
REMARK    3  A    between atoms: _3  and  _6
REMARK    4  A    between atoms: _6  and  _7
REMARK    5  A    between atoms: _10  and  _12
REMARK    6  A    between atoms: _12  and  _13
REMARK    7  A    between atoms: _12  and  _15
REMARK    8  A    between atoms: _15  and  _16
REMARK    9  A    between atoms: _21  and  _23
REMARK   10  A    between atoms: _23  and  _24
REMARK   11  A    between atoms: _23  and  _26
REMARK   12  A    between atoms: _26  and  _27
REMARK   13  A    between atoms: _33  and  _35
REMARK   14  A    between atoms: _35  and  _36
REMARK   15  A    between atoms: _38  and  _40
REMARK   16  A    between atoms: _40  and  _41
REMARK   17  A    between atoms: _40  and  _43
REMARK   18  A    between atoms: _43  and  _44
REMARK   19  A    between atoms: _44  and  _45
REMARK   20  A    between atoms: _48  and  _50
REMARK   21  A    between atoms: _50  and  _51
REMARK   22  A    between atoms: _50  and  _53
REMARK   23  A    between atoms: _57  and  _58
REMARK   24  A    between atoms: _63  and  _65
REMARK   25  A    between atoms: _65  and  _66
REMARK   26  A    between atoms: _65  and  _68
REMARK   27  A    between atoms: _68  and  _69
REMARK   28  A    between atoms: _75  and  _77
REMARK   29  A    between atoms: _77  and  _78
REMARK   30  A    between atoms: _81  and  _83
REMARK   31  A    between atoms: _83  and  _84
REMARK   32  A    between atoms: _83  and  _86
REMARK   33  A    between atoms: _86  and  _87
REMARK   34  A    between atoms: _87  and  _88
REMARK   35  A    between atoms: _91  and  _93
REMARK   36  A    between atoms: _93  and  _94
REMARK   37  A    between atoms: _93  and  _96
REMARK   38  A    between atoms: _96  and  _97
REMARK   39  A    between atoms: _100  and  _102
REMARK   40  A    between atoms: _102  and  _103
REMARK   41  A    between atoms: _102  and  _105
REMARK   42  A    between atoms: _105  and  _106
REMARK   43  A    between atoms: _106  and  _107
REMARK   44  A    between atoms: _107  and  _108
REMARK   45  A    between atoms: _108  and  _109
REMARK   46  A    between atoms: _113  and  _115
REMARK   47  A    between atoms: _115  and  _116
REMARK   48  A    between atoms: _115  and  _118
REMARK   49  A    between atoms: _118  and  _119
REMARK   50  A    between atoms: _122  and  _124
REMARK   51  A    between atoms: _124  and  _125
REMARK   52  A    between atoms: _124  and  _127
REMARK   53  A    between atoms: _131  and  _132
REMARK   54  A    between atoms: _137  and  _139
REMARK   55  A    between atoms: _139  and  _140
REMARK   56  A    between atoms: _139  and  _142
REMARK   57  A    between atoms: _142  and  _143
REMARK   58  A    between atoms: _148  and  _150
REMARK   59  A    between atoms: _150  and  _151
REMARK   60  A    between atoms: _150  and  _153
REMARK   61  A    between atoms: _153  and  _154
REMARK   62  A    between atoms: _157  and  _159
REMARK   63  A    between atoms: _159  and  _160
REMARK   64  A    between atoms: _159  and  _162
REMARK   65  A    between atoms: _162  and  _163
REMARK   66  A    between atoms: _173  and  _175
REMARK   67  A    between atoms: _175  and  _176
REMARK   68  A    between atoms: _175  and  _178
REMARK   69  A    between atoms: _181  and  _183
REMARK   70  A    between atoms: _183  and  _184
REMARK   71  A    between atoms: _183  and  _186
REMARK   72  A    between atoms: _186  and  _187
REMARK   73  A    between atoms: _187  and  _188
REMARK   74  A    between atoms: _191  and  _193
REMARK   75  A    between atoms: _193  and  _194
REMARK   76  A    between atoms: _193  and  _196
REMARK   77  A    between atoms: _196  and  _197
REMARK   78  A    between atoms: _197  and  _198
REMARK   79  A    between atoms: _201  and  _203
REMARK   80  A    between atoms: _203  and  _204
REMARK   81  A    between atoms: _203  and  _206
REMARK   82  A    between atoms: _206  and  _207
REMARK   83  A    between atoms: _209  and  _211
REMARK   84  A    between atoms: _211  and  _212
REMARK   85  A    between atoms: _211  and  _214
REMARK   86  A    between atoms: _217  and  _219
REMARK   87  A    between atoms: _219  and  _220
REMARK   88  A    between atoms: _219  and  _222
REMARK   89  A    between atoms: _222  and  _223
REMARK   90  A    between atoms: _228  and  _230
REMARK   91  A    between atoms: _230  and  _231
REMARK   92  A    between atoms: _233  and  _235
REMARK   93  A    between atoms: _235  and  _236
REMARK   94  A    between atoms: _235  and  _238
REMARK   95  A    between atoms: _238  and  _239
REMARK   96  A    between atoms: _243  and  _244
REMARK   97  A    between atoms: _249  and  _251
REMARK   98  A    between atoms: _251  and  _252
REMARK   99  A    between atoms: _251  and  _254
REMARK  100  A    between atoms: _254  and  _255
REMARK  101  A    between atoms: _260  and  _261
REMARK  102  A    between atoms: _263  and  _265
REMARK  103  A    between atoms: _265  and  _266
REMARK  104  A    between atoms: _265  and  _268
REMARK  105  A    between atoms: _268  and  _269
REMARK  106  A    between atoms: _275  and  _277
REMARK  107  A    between atoms: _277  and  _278
REMARK  108  A    between atoms: _277  and  _280
REMARK  109  A    between atoms: _280  and  _281
REMARK  110  A    between atoms: _286  and  _288
REMARK  111  A    between atoms: _288  and  _289
REMARK  112  A    between atoms: _288  and  _291
REMARK  113  A    between atoms: _291  and  _292
REMARK  114  A    between atoms: _297  and  _298
REMARK  115  A    between atoms: _300  and  _302
REMARK  116  A    between atoms: _302  and  _303
REMARK  117  A    between atoms: _305  and  _307
REMARK  118  A    between atoms: _307  and  _308
REMARK  119  A    between atoms: _307  and  _310
REMARK  120  A    between atoms: _310  and  _311
REMARK  121  A    between atoms: _314  and  _316
REMARK  122  A    between atoms: _316  and  _317
REMARK  123  A    between atoms: _316  and  _319
REMARK  124  A    between atoms: _319  and  _320
REMARK  125  A    between atoms: _325  and  _327
REMARK  126  A    between atoms: _327  and  _328
REMARK  127  A    between atoms: _331  and  _332
REMARK  128  A    between atoms: _337  and  _339
REMARK  129  A    between atoms: _339  and  _340
REMARK  130  A    between atoms: _339  and  _342
REMARK  131  A    between atoms: _342  and  _343
REMARK  132  A    between atoms: _353  and  _355
REMARK  133  A    between atoms: _355  and  _356
REMARK  134  A    between atoms: _359  and  _361
REMARK  135  A    between atoms: _361  and  _362
REMARK  136  A    between atoms: _361  and  _364
REMARK  137  A    between atoms: _364  and  _365
REMARK  138  A    between atoms: _371  and  _373
REMARK  139  A    between atoms: _373  and  _374
REMARK  140  A    between atoms: _373  and  _376
REMARK  141  A    between atoms: _376  and  _377
REMARK  142  A    between atoms: _380  and  _382
REMARK  143  A    between atoms: _382  and  _383
REMARK  144  A    between atoms: _385  and  _387
REMARK  145  A    between atoms: _387  and  _388
REMARK  146  A    between atoms: _387  and  _390
REMARK  147  A    between atoms: _393  and  _395
REMARK  148  A    between atoms: _395  and  _396
REMARK  149  A    between atoms: _395  and  _398
REMARK  150  A    between atoms: _398  and  _399
REMARK  151  A    between atoms: _399  and  _400
REMARK  152  A    between atoms: _405  and  _407
REMARK  153  A    between atoms: _407  and  _408
REMARK  154  A    between atoms: _407  and  _410
REMARK  155  A    between atoms: _410  and  _411
REMARK  156  A    between atoms: _417  and  _419
REMARK  157  A    between atoms: _419  and  _420
REMARK  158  A    between atoms: _419  and  _422
REMARK  159  A    between atoms: _422  and  _423
REMARK  160  A    between atoms: _423  and  _424
REMARK  161  A    between atoms: _424  and  _425
REMARK  162  A    between atoms: _434  and  _436
REMARK  163  A    between atoms: _436  and  _437
REMARK  164  A    between atoms: _436  and  _439
REMARK  165  A    between atoms: _439  and  _440
REMARK  166  A    between atoms: _440  and  _441
REMARK  167  A    between atoms: _444  and  _445
REMARK  168  A    between atoms: _450  and  _452
REMARK  169  A    between atoms: _452  and  _453
REMARK  170  A    between atoms: _452  and  _455
REMARK  171  A    between atoms: _455  and  _456
REMARK  172  A    between atoms: _456  and  _457
REMARK  173  A    between atoms: _459  and  _461
REMARK  174  A    between atoms: _461  and  _462
REMARK  175  A    between atoms: _464  and  _466
REMARK  176  A    between atoms: _466  and  _467
REMARK  177  A    between atoms: _466  and  _469
REMARK  178  A    between atoms: _472  and  _474
REMARK  179  A    between atoms: _474  and  _475
REMARK  180  A    between atoms: _474  and  _477
REMARK  181  A    between atoms: _477  and  _478
REMARK  182  A    between atoms: _488  and  _490
REMARK  183  A    between atoms: _490  and  _491
REMARK  184  A    between atoms: _493  and  _495
REMARK  185  A    between atoms: _495  and  _496
REMARK  186  A    between atoms: _495  and  _498
REMARK  187  A    between atoms: _498  and  _499
REMARK  188  A    between atoms: _509  and  _511
REMARK  189  A    between atoms: _511  and  _512
REMARK                            x       y       z     vdW  Elec       q    Type
REMARK                         _______ _______ _______ _____ _____    ______ ____
ROOT
ATOM      1  O   HOH     1      17.286  25.199  17.072  0.00  0.00    +0.000 OA
ENDROOT
TORSDOF 0
REMARK  Name = ../refined-set-2016/2gh9/2gh9_pocket.pdb
REMARK  189 active torsions:
REMARK  status: ('A' for Active; 'I' for Inactive)
REMARK    1  A    between atoms: _1  and  _3
REMARK    2  A    between atoms: _3  and  _4
REMARK    3  A    between atoms: _3  and  _6
REMARK    4  A    between atoms: _6  and  _7
REMARK    5  A    between atoms: _10  and  _12
REMARK    6  A    between atoms: _12  and  _13
REMARK    7  A    between atoms: _12  and  _15
REMARK    8  A    between atoms: _15  and  _16
REMARK    9  A    between atoms: _21  and  _23
REMARK   10  A    between atoms: _23  and  _24
REMARK   11  A    between atoms: _23  and  _26
REMARK   12  A    between atoms: _26  and  _27
REMARK   13  A    between atoms: _33  and  _35
REMARK   14  A    between atoms: _35  and  _36
REMARK   15  A    between atoms: _38  and  _40
REMARK   16  A    between atoms: _40  and  _41
REMARK   17  A    between atoms: _40  and  _43
REMARK   18  A    between atoms: _43  and  _44
REMARK   19  A    between atoms: _44  and  _45
REMARK   20  A    between atoms: _48  and  _50
REMARK   21  A    between atoms: _50  and  _51
REMARK   22  A    between atoms: _50  and  _53
REMARK   23  A    between atoms: _57  and  _58
REMARK   24  A    between atoms: _63  and  _65
REMARK   25  A    between atoms: _65  and  _66
REMARK   26  A    between atoms: _65  and  _68
REMARK   27  A    between atoms: _68  and  _69
REMARK   28  A    between atoms: _75  and  _77
REMARK   29  A    between atoms: _77  and  _78
REMARK   30  A    between atoms: _81  and  _83
REMARK   31  A    between atoms: _83  and  _84
REMARK   32  A    between atoms: _83  and  _86
REMARK   33  A    between atoms: _86  and  _87
REMARK   34  A    between atoms: _87  and  _88
REMARK   35  A    between atoms: _91  and  _93
REMARK   36  A    between atoms: _93  and  _94
REMARK   37  A    between atoms: _93  and  _96
REMARK   38  A    between atoms: _96  and  _97
REMARK   39  A    between atoms: _100  and  _102
REMARK   40  A    between atoms: _102  and  _103
REMARK   41  A    between atoms: _102  and  _105
REMARK   42  A    between atoms: _105  and  _106
REMARK   43  A    between atoms: _106  and  _107
REMARK   44  A    between atoms: _107  and  _108
REMARK   45  A    between atoms: _108  and  _109
REMARK   46  A    between atoms: _113  and  _115
REMARK   47  A    between atoms: _115  and  _116
REMARK   48  A    between atoms: _115  and  _118
REMARK   49  A    between atoms: _118  and  _119
REMARK   50  A    between atoms: _122  and  _124
REMARK   51  A    between atoms: _124  and  _125
REMARK   52  A    between atoms: _124  and  _127
REMARK   53  A    between atoms: _131  and  _132
REMARK   54  A    between atoms: _137  and  _139
REMARK   55  A    between atoms: _139  and  _140
REMARK   56  A    between atoms: _139  and  _142
REMARK   57  A    between atoms: _142  and  _143
REMARK   58  A    between atoms: _148  and  _150
REMARK   59  A    between atoms: _150  and  _151
REMARK   60  A    between atoms: _150  and  _153
REMARK   61  A    between atoms: _153  and  _154
REMARK   62  A    between atoms: _157  and  _159
REMARK   63  A    between atoms: _159  and  _160
REMARK   64  A    between atoms: _159  and  _162
REMARK   65  A    between atoms: _162  and  _163
REMARK   66  A    between atoms: _173  and  _175
REMARK   67  A    between atoms: _175  and  _176
REMARK   68  A    between atoms: _175  and  _178
REMARK   69  A    between atoms: _181  and  _183
REMARK   70  A    between atoms: _183  and  _184
REMARK   71  A    between atoms: _183  and  _186
REMARK   72  A    between atoms: _186  and  _187
REMARK   73  A    between atoms: _187  and  _188
REMARK   74  A    between atoms: _191  and  _193
REMARK   75  A    between atoms: _193  and  _194
REMARK   76  A    between atoms: _193  and  _196
REMARK   77  A    between atoms: _196  and  _197
REMARK   78  A    between atoms: _197  and  _198
REMARK   79  A    between atoms: _201  and  _203
REMARK   80  A    between atoms: _203  and  _204
REMARK   81  A    between atoms: _203  and  _206
REMARK   82  A    between atoms: _206  and  _207
REMARK   83  A    between atoms: _209  and  _211
REMARK   84  A    between atoms: _211  and  _212
REMARK   85  A    between atoms: _211  and  _214
REMARK   86  A    between atoms: _217  and  _219
REMARK   87  A    between atoms: _219  and  _220
REMARK   88  A    between atoms: _219  and  _222
REMARK   89  A    between atoms: _222  and  _223
REMARK   90  A    between atoms: _228  and  _230
REMARK   91  A    between atoms: _230  and  _231
REMARK   92  A    between atoms: _233  and  _235
REMARK   93  A    between atoms: _235  and  _236
REMARK   94  A    between atoms: _235  and  _238
REMARK   95  A    between atoms: _238  and  _239
REMARK   96  A    between atoms: _243  and  _244
REMARK   97  A    between atoms: _249  and  _251
REMARK   98  A    between atoms: _251  and  _252
REMARK   99  A    between atoms: _251  and  _254
REMARK  100  A    between atoms: _254  and  _255
REMARK  101  A    between atoms: _260  and  _261
REMARK  102  A    between atoms: _263  and  _265
REMARK  103  A    between atoms: _265  and  _266
REMARK  104  A    between atoms: _265  and  _268
REMARK  105  A    between atoms: _268  and  _269
REMARK  106  A    between atoms: _275  and  _277
REMARK  107  A    between atoms: _277  and  _278
REMARK  108  A    between atoms: _277  and  _280
REMARK  109  A    between atoms: _280  and  _281
REMARK  110  A    between atoms: _286  and  _288
REMARK  111  A    between atoms: _288  and  _289
REMARK  112  A    between atoms: _288  and  _291
REMARK  113  A    between atoms: _291  and  _292
REMARK  114  A    between atoms: _297  and  _298
REMARK  115  A    between atoms: _300  and  _302
REMARK  116  A    between atoms: _302  and  _303
REMARK  117  A    between atoms: _305  and  _307
REMARK  118  A    between atoms: _307  and  _308
REMARK  119  A    between atoms: _307  and  _310
REMARK  120  A    between atoms: _310  and  _311
REMARK  121  A    between atoms: _314  and  _316
REMARK  122  A    between atoms: _316  and  _317
REMARK  123  A    between atoms: _316  and  _319
REMARK  124  A    between atoms: _319  and  _320
REMARK  125  A    between atoms: _325  and  _327
REMARK  126  A    between atoms: _327  and  _328
REMARK  127  A    between atoms: _331  and  _332
REMARK  128  A    between atoms: _337  and  _339
REMARK  129  A    between atoms: _339  and  _340
REMARK  130  A    between atoms: _339  and  _342
REMARK  131  A    between atoms: _342  and  _343
REMARK  132  A    between atoms: _353  and  _355
REMARK  133  A    between atoms: _355  and  _356
REMARK  134  A    between atoms: _359  and  _361
REMARK  135  A    between atoms: _361  and  _362
REMARK  136  A    between atoms: _361  and  _364
REMARK  137  A    between atoms: _364  and  _365
REMARK  138  A    between atoms: _371  and  _373
REMARK  139  A    between atoms: _373  and  _374
REMARK  140  A    between atoms: _373  and  _376
REMARK  141  A    between atoms: _376  and  _377
REMARK  142  A    between atoms: _380  and  _382
REMARK  143  A    between atoms: _382  and  _383
REMARK  144  A    between atoms: _385  and  _387
REMARK  145  A    between atoms: _387  and  _388
REMARK  146  A    between atoms: _387  and  _390
REMARK  147  A    between atoms: _393  and  _395
REMARK  148  A    between atoms: _395  and  _396
REMARK  149  A    between atoms: _395  and  _398
REMARK  150  A    between atoms: _398  and  _399
REMARK  151  A    between atoms: _399  and  _400
REMARK  152  A    between atoms: _405  and  _407
REMARK  153  A    between atoms: _407  and  _408
REMARK  154  A    between atoms: _407  and  _410
REMARK  155  A    between atoms: _410  and  _411
REMARK  156  A    between atoms: _417  and  _419
REMARK  157  A    between atoms: _419  and  _420
REMARK  158  A    between atoms: _419  and  _422
REMARK  159  A    between atoms: _422  and  _423
REMARK  160  A    between atoms: _423  and  _424
REMARK  161  A    between atoms: _424  and  _425
REMARK  162  A    between atoms: _434  and  _436
REMARK  163  A    between atoms: _436  and  _437
REMARK  164  A    between atoms: _436  and  _439
REMARK  165  A    between atoms: _439  and  _440
REMARK  166  A    between atoms: _440  and  _441
REMARK  167  A    between atoms: _444  and  _445
REMARK  168  A    between atoms: _450  and  _452
REMARK  169  A    between atoms: _452  and  _453
REMARK  170  A    between atoms: _452  and  _455
REMARK  171  A    between atoms: _455  and  _456
REMARK  172  A    between atoms: _456  and  _457
REMARK  173  A    between atoms: _459  and  _461
REMARK  174  A    between atoms: _461  and  _462
REMARK  175  A    between atoms: _464  and  _466
REMARK  176  A    between atoms: _466  and  _467
REMARK  177  A    between atoms: _466  and  _469
REMARK  178  A    between atoms: _472  and  _474
REMARK  179  A    between atoms: _474  and  _475
REMARK  180  A    between atoms: _474  and  _477
REMARK  181  A    between atoms: _477  and  _478
REMARK  182  A    between atoms: _488  and  _490
REMARK  183  A    between atoms: _490  and  _491
REMARK  184  A    between atoms: _493  and  _495
REMARK  185  A    between atoms: _495  and  _496
REMARK  186  A    between atoms: _495  and  _498
REMARK  187  A    between atoms: _498  and  _499
REMARK  188  A    between atoms: _509  and  _511
REMARK  189  A    between atoms: _511  and  _512
REMARK                            x       y       z     vdW  Elec       q    Type
REMARK                         _______ _______ _______ _____ _____    ______ ____
ROOT
ATOM      1  O   HOH     1      20.132  20.148  15.578  0.00  0.00    +0.000 OA
ENDROOT
TORSDOF 0
REMARK  Name = ../refined-set-2016/2gh9/2gh9_pocket.pdb
REMARK  189 active torsions:
REMARK  status: ('A' for Active; 'I' for Inactive)
REMARK    1  A    between atoms: _1  and  _3
REMARK    2  A    between atoms: _3  and  _4
REMARK    3  A    between atoms: _3  and  _6
REMARK    4  A    between atoms: _6  and  _7
REMARK    5  A    between atoms: _10  and  _12
REMARK    6  A    between atoms: _12  and  _13
REMARK    7  A    between atoms: _12  and  _15
REMARK    8  A    between atoms: _15  and  _16
REMARK    9  A    between atoms: _21  and  _23
REMARK   10  A    between atoms: _23  and  _24
REMARK   11  A    between atoms: _23  and  _26
REMARK   12  A    between atoms: _26  and  _27
REMARK   13  A    between atoms: _33  and  _35
REMARK   14  A    between atoms: _35  and  _36
REMARK   15  A    between atoms: _38  and  _40
REMARK   16  A    between atoms: _40  and  _41
REMARK   17  A    between atoms: _40  and  _43
REMARK   18  A    between atoms: _43  and  _44
REMARK   19  A    between atoms: _44  and  _45
REMARK   20  A    between atoms: _48  and  _50
REMARK   21  A    between atoms: _50  and  _51
REMARK   22  A    between atoms: _50  and  _53
REMARK   23  A    between atoms: _57  and  _58
REMARK   24  A    between atoms: _63  and  _65
REMARK   25  A    between atoms: _65  and  _66
REMARK   26  A    between atoms: _65  and  _68
REMARK   27  A    between atoms: _68  and  _69
REMARK   28  A    between atoms: _75  and  _77
REMARK   29  A    between atoms: _77  and  _78
REMARK   30  A    between atoms: _81  and  _83
REMARK   31  A    between atoms: _83  and  _84
REMARK   32  A    between atoms: _83  and  _86
REMARK   33  A    between atoms: _86  and  _87
REMARK   34  A    between atoms: _87  and  _88
REMARK   35  A    between atoms: _91  and  _93
REMARK   36  A    between atoms: _93  and  _94
REMARK   37  A    between atoms: _93  and  _96
REMARK   38  A    between atoms: _96  and  _97
REMARK   39  A    between atoms: _100  and  _102
REMARK   40  A    between atoms: _102  and  _103
REMARK   41  A    between atoms: _102  and  _105
REMARK   42  A    between atoms: _105  and  _106
REMARK   43  A    between atoms: _106  and  _107
REMARK   44  A    between atoms: _107  and  _108
REMARK   45  A    between atoms: _108  and  _109
REMARK   46  A    between atoms: _113  and  _115
REMARK   47  A    between atoms: _115  and  _116
REMARK   48  A    between atoms: _115  and  _118
REMARK   49  A    between atoms: _118  and  _119
REMARK   50  A    between atoms: _122  and  _124
REMARK   51  A    between atoms: _124  and  _125
REMARK   52  A    between atoms: _124  and  _127
REMARK   53  A    between atoms: _131  and  _132
REMARK   54  A    between atoms: _137  and  _139
REMARK   55  A    between atoms: _139  and  _140
REMARK   56  A    between atoms: _139  and  _142
REMARK   57  A    between atoms: _142  and  _143
REMARK   58  A    between atoms: _148  and  _150
REMARK   59  A    between atoms: _150  and  _151
REMARK   60  A    between atoms: _150  and  _153
REMARK   61  A    between atoms: _153  and  _154
REMARK   62  A    between atoms: _157  and  _159
REMARK   63  A    between atoms: _159  and  _160
REMARK   64  A    between atoms: _159  and  _162
REMARK   65  A    between atoms: _162  and  _163
REMARK   66  A    between atoms: _173  and  _175
REMARK   67  A    between atoms: _175  and  _176
REMARK   68  A    between atoms: _175  and  _178
REMARK   69  A    between atoms: _181  and  _183
REMARK   70  A    between atoms: _183  and  _184
REMARK   71  A    between atoms: _183  and  _186
REMARK   72  A    between atoms: _186  and  _187
REMARK   73  A    between atoms: _187  and  _188
REMARK   74  A    between atoms: _191  and  _193
REMARK   75  A    between atoms: _193  and  _194
REMARK   76  A    between atoms: _193  and  _196
REMARK   77  A    between atoms: _196  and  _197
REMARK   78  A    between atoms: _197  and  _198
REMARK   79  A    between atoms: _201  and  _203
REMARK   80  A    between atoms: _203  and  _204
REMARK   81  A    between atoms: _203  and  _206
REMARK   82  A    between atoms: _206  and  _207
REMARK   83  A    between atoms: _209  and  _211
REMARK   84  A    between atoms: _211  and  _212
REMARK   85  A    between atoms: _211  and  _214
REMARK   86  A    between atoms: _217  and  _219
REMARK   87  A    between atoms: _219  and  _220
REMARK   88  A    between atoms: _219  and  _222
REMARK   89  A    between atoms: _222  and  _223
REMARK   90  A    between atoms: _228  and  _230
REMARK   91  A    between atoms: _230  and  _231
REMARK   92  A    between atoms: _233  and  _235
REMARK   93  A    between atoms: _235  and  _236
REMARK   94  A    between atoms: _235  and  _238
REMARK   95  A    between atoms: _238  and  _239
REMARK   96  A    between atoms: _243  and  _244
REMARK   97  A    between atoms: _249  and  _251
REMARK   98  A    between atoms: _251  and  _252
REMARK   99  A    between atoms: _251  and  _254
REMARK  100  A    between atoms: _254  and  _255
REMARK  101  A    between atoms: _260  and  _261
REMARK  102  A    between atoms: _263  and  _265
REMARK  103  A    between atoms: _265  and  _266
REMARK  104  A    between atoms: _265  and  _268
REMARK  105  A    between atoms: _268  and  _269
REMARK  106  A    between atoms: _275  and  _277
REMARK  107  A    between atoms: _277  and  _278
REMARK  108  A    between atoms: _277  and  _280
REMARK  109  A    between atoms: _280  and  _281
REMARK  110  A    between atoms: _286  and  _288
REMARK  111  A    between atoms: _288  and  _289
REMARK  112  A    between atoms: _288  and  _291
REMARK  113  A    between atoms: _291  and  _292
REMARK  114  A    between atoms: _297  and  _298
REMARK  115  A    between atoms: _300  and  _302
REMARK  116  A    between atoms: _302  and  _303
REMARK  117  A    between atoms: _305  and  _307
REMARK  118  A    between atoms: _307  and  _308
REMARK  119  A    between atoms: _307  and  _310
REMARK  120  A    between atoms: _310  and  _311
REMARK  121  A    between atoms: _314  and  _316
REMARK  122  A    between atoms: _316  and  _317
REMARK  123  A    between atoms: _316  and  _319
REMARK  124  A    between atoms: _319  and  _320
REMARK  125  A    between atoms: _325  and  _327
REMARK  126  A    between atoms: _327  and  _328
REMARK  127  A    between atoms: _331  and  _332
REMARK  128  A    between atoms: _337  and  _339
REMARK  129  A    between atoms: _339  and  _340
REMARK  130  A    between atoms: _339  and  _342
REMARK  131  A    between atoms: _342  and  _343
REMARK  132  A    between atoms: _353  and  _355
REMARK  133  A    between atoms: _355  and  _356
REMARK  134  A    between atoms: _359  and  _361
REMARK  135  A    between atoms: _361  and  _362
REMARK  136  A    between atoms: _361  and  _364
REMARK  137  A    between atoms: _364  and  _365
REMARK  138  A    between atoms: _371  and  _373
REMARK  139  A    between atoms: _373  and  _374
REMARK  140  A    between atoms: _373  and  _376
REMARK  141  A    between atoms: _376  and  _377
REMARK  142  A    between atoms: _380  and  _382
REMARK  143  A    between atoms: _382  and  _383
REMARK  144  A    between atoms: _385  and  _387
REMARK  145  A    between atoms: _387  and  _388
REMARK  146  A    between atoms: _387  and  _390
REMARK  147  A    between atoms: _393  and  _395
REMARK  148  A    between atoms: _395  and  _396
REMARK  149  A    between atoms: _395  and  _398
REMARK  150  A    between atoms: _398  and  _399
REMARK  151  A    between atoms: _399  and  _400
REMARK  152  A    between atoms: _405  and  _407
REMARK  153  A    between atoms: _407  and  _408
REMARK  154  A    between atoms: _407  and  _410
REMARK  155  A    between atoms: _410  and  _411
REMARK  156  A    between atoms: _417  and  _419
REMARK  157  A    between atoms: _419  and  _420
REMARK  158  A    between atoms: _419  and  _422
REMARK  159  A    between atoms: _422  and  _423
REMARK  160  A    between atoms: _423  and  _424
REMARK  161  A    between atoms: _424  and  _425
REMARK  162  A    between atoms: _434  and  _436
REMARK  163  A    between atoms: _436  and  _437
REMARK  164  A    between atoms: _436  and  _439
REMARK  165  A    between atoms: _439  and  _440
REMARK  166  A    between atoms: _440  and  _441
REMARK  167  A    between atoms: _444  and  _445
REMARK  168  A    between atoms: _450  and  _452
REMARK  169  A    between atoms: _452  and  _453
REMARK  170  A    between atoms: _452  and  _455
REMARK  171  A    between atoms: _455  and  _456
REMARK  172  A    between atoms: _456  and  _457
REMARK  173  A    between atoms: _459  and  _461
REMARK  174  A    between atoms: _461  and  _462
REMARK  175  A    between atoms: _464  and  _466
REMARK  176  A    between atoms: _466  and  _467
REMARK  177  A    between atoms: _466  and  _469
REMARK  178  A    between atoms: _472  and  _474
REMARK  179  A    between atoms: _474  and  _475
REMARK  180  A    between atoms: _474  and  _477
REMARK  181  A    between atoms: _477  and  _478
REMARK  182  A    between atoms: _488  and  _490
REMARK  183  A    between atoms: _490  and  _491
REMARK  184  A    between atoms: _493  and  _495
REMARK  185  A    between atoms: _495  and  _496
REMARK  186  A    between atoms: _495  and  _498
REMARK  187  A    between atoms: _498  and  _499
REMARK  188  A    between atoms: _509  and  _511
REMARK  189  A    between atoms: _511  and  _512
REMARK                            x       y       z     vdW  Elec       q    Type
REMARK                         _______ _______ _______ _____ _____    ______ ____
ROOT
ATOM      1  O   HOH     1      20.990  22.417  15.167  0.00  0.00    +0.000 OA
ENDROOT
TORSDOF 0
REMARK  Name = ../refined-set-2016/2gh9/2gh9_pocket.pdb
REMARK  189 active torsions:
REMARK  status: ('A' for Active; 'I' for Inactive)
REMARK    1  A    between atoms: _1  and  _3
REMARK    2  A    between atoms: _3  and  _4
REMARK    3  A    between atoms: _3  and  _6
REMARK    4  A    between atoms: _6  and  _7
REMARK    5  A    between atoms: _10  and  _12
REMARK    6  A    between atoms: _12  and  _13
REMARK    7  A    between atoms: _12  and  _15
REMARK    8  A    between atoms: _15  and  _16
REMARK    9  A    between atoms: _21  and  _23
REMARK   10  A    between atoms: _23  and  _24
REMARK   11  A    between atoms: _23  and  _26
REMARK   12  A    between atoms: _26  and  _27
REMARK   13  A    between atoms: _33  and  _35
REMARK   14  A    between atoms: _35  and  _36
REMARK   15  A    between atoms: _38  and  _40
REMARK   16  A    between atoms: _40  and  _41
REMARK   17  A    between atoms: _40  and  _43
REMARK   18  A    between atoms: _43  and  _44
REMARK   19  A    between atoms: _44  and  _45
REMARK   20  A    between atoms: _48  and  _50
REMARK   21  A    between atoms: _50  and  _51
REMARK   22  A    between atoms: _50  and  _53
REMARK   23  A    between atoms: _57  and  _58
REMARK   24  A    between atoms: _63  and  _65
REMARK   25  A    between atoms: _65  and  _66
REMARK   26  A    between atoms: _65  and  _68
REMARK   27  A    between atoms: _68  and  _69
REMARK   28  A    between atoms: _75  and  _77
REMARK   29  A    between atoms: _77  and  _78
REMARK   30  A    between atoms: _81  and  _83
REMARK   31  A    between atoms: _83  and  _84
REMARK   32  A    between atoms: _83  and  _86
REMARK   33  A    between atoms: _86  and  _87
REMARK   34  A    between atoms: _87  and  _88
REMARK   35  A    between atoms: _91  and  _93
REMARK   36  A    between atoms: _93  and  _94
REMARK   37  A    between atoms: _93  and  _96
REMARK   38  A    between atoms: _96  and  _97
REMARK   39  A    between atoms: _100  and  _102
REMARK   40  A    between atoms: _102  and  _103
REMARK   41  A    between atoms: _102  and  _105
REMARK   42  A    between atoms: _105  and  _106
REMARK   43  A    between atoms: _106  and  _107
REMARK   44  A    between atoms: _107  and  _108
REMARK   45  A    between atoms: _108  and  _109
REMARK   46  A    between atoms: _113  and  _115
REMARK   47  A    between atoms: _115  and  _116
REMARK   48  A    between atoms: _115  and  _118
REMARK   49  A    between atoms: _118  and  _119
REMARK   50  A    between atoms: _122  and  _124
REMARK   51  A    between atoms: _124  and  _125
REMARK   52  A    between atoms: _124  and  _127
REMARK   53  A    between atoms: _131  and  _132
REMARK   54  A    between atoms: _137  and  _139
REMARK   55  A    between atoms: _139  and  _140
REMARK   56  A    between atoms: _139  and  _142
REMARK   57  A    between atoms: _142  and  _143
REMARK   58  A    between atoms: _148  and  _150
REMARK   59  A    between atoms: _150  and  _151
REMARK   60  A    between atoms: _150  and  _153
REMARK   61  A    between atoms: _153  and  _154
REMARK   62  A    between atoms: _157  and  _159
REMARK   63  A    between atoms: _159  and  _160
REMARK   64  A    between atoms: _159  and  _162
REMARK   65  A    between atoms: _162  and  _163
REMARK   66  A    between atoms: _173  and  _175
REMARK   67  A    between atoms: _175  and  _176
REMARK   68  A    between atoms: _175  and  _178
REMARK   69  A    between atoms: _181  and  _183
REMARK   70  A    between atoms: _183  and  _184
REMARK   71  A    between atoms: _183  and  _186
REMARK   72  A    between atoms: _186  and  _187
REMARK   73  A    between atoms: _187  and  _188
REMARK   74  A    between atoms: _191  and  _193
REMARK   75  A    between atoms: _193  and  _194
REMARK   76  A    between atoms: _193  and  _196
REMARK   77  A    between atoms: _196  and  _197
REMARK   78  A    between atoms: _197  and  _198
REMARK   79  A    between atoms: _201  and  _203
REMARK   80  A    between atoms: _203  and  _204
REMARK   81  A    between atoms: _203  and  _206
REMARK   82  A    between atoms: _206  and  _207
REMARK   83  A    between atoms: _209  and  _211
REMARK   84  A    between atoms: _211  and  _212
REMARK   85  A    between atoms: _211  and  _214
REMARK   86  A    between atoms: _217  and  _219
REMARK   87  A    between atoms: _219  and  _220
REMARK   88  A    between atoms: _219  and  _222
REMARK   89  A    between atoms: _222  and  _223
REMARK   90  A    between atoms: _228  and  _230
REMARK   91  A    between atoms: _230  and  _231
REMARK   92  A    between atoms: _233  and  _235
REMARK   93  A    between atoms: _235  and  _236
REMARK   94  A    between atoms: _235  and  _238
REMARK   95  A    between atoms: _238  and  _239
REMARK   96  A    between atoms: _243  and  _244
REMARK   97  A    between atoms: _249  and  _251
REMARK   98  A    between atoms: _251  and  _252
REMARK   99  A    between atoms: _251  and  _254
REMARK  100  A    between atoms: _254  and  _255
REMARK  101  A    between atoms: _260  and  _261
REMARK  102  A    between atoms: _263  and  _265
REMARK  103  A    between atoms: _265  and  _266
REMARK  104  A    between atoms: _265  and  _268
REMARK  105  A    between atoms: _268  and  _269
REMARK  106  A    between atoms: _275  and  _277
REMARK  107  A    between atoms: _277  and  _278
REMARK  108  A    between atoms: _277  and  _280
REMARK  109  A    between atoms: _280  and  _281
REMARK  110  A    between atoms: _286  and  _288
REMARK  111  A    between atoms: _288  and  _289
REMARK  112  A    between atoms: _288  and  _291
REMARK  113  A    between atoms: _291  and  _292
REMARK  114  A    between atoms: _297  and  _298
REMARK  115  A    between atoms: _300  and  _302
REMARK  116  A    between atoms: _302  and  _303
REMARK  117  A    between atoms: _305  and  _307
REMARK  118  A    between atoms: _307  and  _308
REMARK  119  A    between atoms: _307  and  _310
REMARK  120  A    between atoms: _310  and  _311
REMARK  121  A    between atoms: _314  and  _316
REMARK  122  A    between atoms: _316  and  _317
REMARK  123  A    between atoms: _316  and  _319
REMARK  124  A    between atoms: _319  and  _320
REMARK  125  A    between atoms: _325  and  _327
REMARK  126  A    between atoms: _327  and  _328
REMARK  127  A    between atoms: _331  and  _332
REMARK  128  A    between atoms: _337  and  _339
REMARK  129  A    between atoms: _339  and  _340
REMARK  130  A    between atoms: _339  and  _342
REMARK  131  A    between atoms: _342  and  _343
REMARK  132  A    between atoms: _353  and  _355
REMARK  133  A    between atoms: _355  and  _356
REMARK  134  A    between atoms: _359  and  _361
REMARK  135  A    between atoms: _361  and  _362
REMARK  136  A    between atoms: _361  and  _364
REMARK  137  A    between atoms: _364  and  _365
REMARK  138  A    between atoms: _371  and  _373
REMARK  139  A    between atoms: _373  and  _374
REMARK  140  A    between atoms: _373  and  _376
REMARK  141  A    between atoms: _376  and  _377
REMARK  142  A    between atoms: _380  and  _382
REMARK  143  A    between atoms: _382  and  _383
REMARK  144  A    between atoms: _385  and  _387
REMARK  145  A    between atoms: _387  and  _388
REMARK  146  A    between atoms: _387  and  _390
REMARK  147  A    between atoms: _393  and  _395
REMARK  148  A    between atoms: _395  and  _396
REMARK  149  A    between atoms: _395  and  _398
REMARK  150  A    between atoms: _398  and  _399
REMARK  151  A    between atoms: _399  and  _400
REMARK  152  A    between atoms: _405  and  _407
REMARK  153  A    between atoms: _407  and  _408
REMARK  154  A    between atoms: _407  and  _410
REMARK  155  A    between atoms: _410  and  _411
REMARK  156  A    between atoms: _417  and  _419
REMARK  157  A    between atoms: _419  and  _420
REMARK  158  A    between atoms: _419  and  _422
REMARK  159  A    between atoms: _422  and  _423
REMARK  160  A    between atoms: _423  and  _424
REMARK  161  A    between atoms: _424  and  _425
REMARK  162  A    between atoms: _434  and  _436
REMARK  163  A    between atoms: _436  and  _437
REMARK  164  A    between atoms: _436  and  _439
REMARK  165  A    between atoms: _439  and  _440
REMARK  166  A    between atoms: _440  and  _441
REMARK  167  A    between atoms: _444  and  _445
REMARK  168  A    between atoms: _450  and  _452
REMARK  169  A    between atoms: _452  and  _453
REMARK  170  A    between atoms: _452  and  _455
REMARK  171  A    between atoms: _455  and  _456
REMARK  172  A    between atoms: _456  and  _457
REMARK  173  A    between atoms: _459  and  _461
REMARK  174  A    between atoms: _461  and  _462
REMARK  175  A    between atoms: _464  and  _466
REMARK  176  A    between atoms: _466  and  _467
REMARK  177  A    between atoms: _466  and  _469
REMARK  178  A    between atoms: _472  and  _474
REMARK  179  A    between atoms: _474  and  _475
REMARK  180  A    between atoms: _474  and  _477
REMARK  181  A    between atoms: _477  and  _478
REMARK  182  A    between atoms: _488  and  _490
REMARK  183  A    between atoms: _490  and  _491
REMARK  184  A    between atoms: _493  and  _495
REMARK  185  A    between atoms: _495  and  _496
REMARK  186  A    between atoms: _495  and  _498
REMARK  187  A    between atoms: _498  and  _499
REMARK  188  A    between atoms: _509  and  _511
REMARK  189  A    between atoms: _511  and  _512
REMARK                            x       y       z     vdW  Elec       q    Type
REMARK                         _______ _______ _______ _____ _____    ______ ____
ROOT
ATOM      1  O   HOH     1      21.233  20.772  11.715  0.00  0.00    +0.000 OA
ENDROOT
TORSDOF 0
REMARK  Name = ../refined-set-2016/2gh9/2gh9_pocket.pdb
REMARK  189 active torsions:
REMARK  status: ('A' for Active; 'I' for Inactive)
REMARK    1  A    between atoms: _1  and  _3
REMARK    2  A    between atoms: _3  and  _4
REMARK    3  A    between atoms: _3  and  _6
REMARK    4  A    between atoms: _6  and  _7
REMARK    5  A    between atoms: _10  and  _12
REMARK    6  A    between atoms: _12  and  _13
REMARK    7  A    between atoms: _12  and  _15
REMARK    8  A    between atoms: _15  and  _16
REMARK    9  A    between atoms: _21  and  _23
REMARK   10  A    between atoms: _23  and  _24
REMARK   11  A    between atoms: _23  and  _26
REMARK   12  A    between atoms: _26  and  _27
REMARK   13  A    between atoms: _33  and  _35
REMARK   14  A    between atoms: _35  and  _36
REMARK   15  A    between atoms: _38  and  _40
REMARK   16  A    between atoms: _40  and  _41
REMARK   17  A    between atoms: _40  and  _43
REMARK   18  A    between atoms: _43  and  _44
REMARK   19  A    between atoms: _44  and  _45
REMARK   20  A    between atoms: _48  and  _50
REMARK   21  A    between atoms: _50  and  _51
REMARK   22  A    between atoms: _50  and  _53
REMARK   23  A    between atoms: _57  and  _58
REMARK   24  A    between atoms: _63  and  _65
REMARK   25  A    between atoms: _65  and  _66
REMARK   26  A    between atoms: _65  and  _68
REMARK   27  A    between atoms: _68  and  _69
REMARK   28  A    between atoms: _75  and  _77
REMARK   29  A    between atoms: _77  and  _78
REMARK   30  A    between atoms: _81  and  _83
REMARK   31  A    between atoms: _83  and  _84
REMARK   32  A    between atoms: _83  and  _86
REMARK   33  A    between atoms: _86  and  _87
REMARK   34  A    between atoms: _87  and  _88
REMARK   35  A    between atoms: _91  and  _93
REMARK   36  A    between atoms: _93  and  _94
REMARK   37  A    between atoms: _93  and  _96
REMARK   38  A    between atoms: _96  and  _97
REMARK   39  A    between atoms: _100  and  _102
REMARK   40  A    between atoms: _102  and  _103
REMARK   41  A    between atoms: _102  and  _105
REMARK   42  A    between atoms: _105  and  _106
REMARK   43  A    between atoms: _106  and  _107
REMARK   44  A    between atoms: _107  and  _108
REMARK   45  A    between atoms: _108  and  _109
REMARK   46  A    between atoms: _113  and  _115
REMARK   47  A    between atoms: _115  and  _116
REMARK   48  A    between atoms: _115  and  _118
REMARK   49  A    between atoms: _118  and  _119
REMARK   50  A    between atoms: _122  and  _124
REMARK   51  A    between atoms: _124  and  _125
REMARK   52  A    between atoms: _124  and  _127
REMARK   53  A    between atoms: _131  and  _132
REMARK   54  A    between atoms: _137  and  _139
REMARK   55  A    between atoms: _139  and  _140
REMARK   56  A    between atoms: _139  and  _142
REMARK   57  A    between atoms: _142  and  _143
REMARK   58  A    between atoms: _148  and  _150
REMARK   59  A    between atoms: _150  and  _151
REMARK   60  A    between atoms: _150  and  _153
REMARK   61  A    between atoms: _153  and  _154
REMARK   62  A    between atoms: _157  and  _159
REMARK   63  A    between atoms: _159  and  _160
REMARK   64  A    between atoms: _159  and  _162
REMARK   65  A    between atoms: _162  and  _163
REMARK   66  A    between atoms: _173  and  _175
REMARK   67  A    between atoms: _175  and  _176
REMARK   68  A    between atoms: _175  and  _178
REMARK   69  A    between atoms: _181  and  _183
REMARK   70  A    between atoms: _183  and  _184
REMARK   71  A    between atoms: _183  and  _186
REMARK   72  A    between atoms: _186  and  _187
REMARK   73  A    between atoms: _187  and  _188
REMARK   74  A    between atoms: _191  and  _193
REMARK   75  A    between atoms: _193  and  _194
REMARK   76  A    between atoms: _193  and  _196
REMARK   77  A    between atoms: _196  and  _197
REMARK   78  A    between atoms: _197  and  _198
REMARK   79  A    between atoms: _201  and  _203
REMARK   80  A    between atoms: _203  and  _204
REMARK   81  A    between atoms: _203  and  _206
REMARK   82  A    between atoms: _206  and  _207
REMARK   83  A    between atoms: _209  and  _211
REMARK   84  A    between atoms: _211  and  _212
REMARK   85  A    between atoms: _211  and  _214
REMARK   86  A    between atoms: _217  and  _219
REMARK   87  A    between atoms: _219  and  _220
REMARK   88  A    between atoms: _219  and  _222
REMARK   89  A    between atoms: _222  and  _223
REMARK   90  A    between atoms: _228  and  _230
REMARK   91  A    between atoms: _230  and  _231
REMARK   92  A    between atoms: _233  and  _235
REMARK   93  A    between atoms: _235  and  _236
REMARK   94  A    between atoms: _235  and  _238
REMARK   95  A    between atoms: _238  and  _239
REMARK   96  A    between atoms: _243  and  _244
REMARK   97  A    between atoms: _249  and  _251
REMARK   98  A    between atoms: _251  and  _252
REMARK   99  A    between atoms: _251  and  _254
REMARK  100  A    between atoms: _254  and  _255
REMARK  101  A    between atoms: _260  and  _261
REMARK  102  A    between atoms: _263  and  _265
REMARK  103  A    between atoms: _265  and  _266
REMARK  104  A    between atoms: _265  and  _268
REMARK  105  A    between atoms: _268  and  _269
REMARK  106  A    between atoms: _275  and  _277
REMARK  107  A    between atoms: _277  and  _278
REMARK  108  A    between atoms: _277  and  _280
REMARK  109  A    between atoms: _280  and  _281
REMARK  110  A    between atoms: _286  and  _288
REMARK  111  A    between atoms: _288  and  _289
REMARK  112  A    between atoms: _288  and  _291
REMARK  113  A    between atoms: _291  and  _292
REMARK  114  A    between atoms: _297  and  _298
REMARK  115  A    between atoms: _300  and  _302
REMARK  116  A    between atoms: _302  and  _303
REMARK  117  A    between atoms: _305  and  _307
REMARK  118  A    between atoms: _307  and  _308
REMARK  119  A    between atoms: _307  and  _310
REMARK  120  A    between atoms: _310  and  _311
REMARK  121  A    between atoms: _314  and  _316
REMARK  122  A    between atoms: _316  and  _317
REMARK  123  A    between atoms: _316  and  _319
REMARK  124  A    between atoms: _319  and  _320
REMARK  125  A    between atoms: _325  and  _327
REMARK  126  A    between atoms: _327  and  _328
REMARK  127  A    between atoms: _331  and  _332
REMARK  128  A    between atoms: _337  and  _339
REMARK  129  A    between atoms: _339  and  _340
REMARK  130  A    between atoms: _339  and  _342
REMARK  131  A    between atoms: _342  and  _343
REMARK  132  A    between atoms: _353  and  _355
REMARK  133  A    between atoms: _355  and  _356
REMARK  134  A    between atoms: _359  and  _361
REMARK  135  A    between atoms: _361  and  _362
REMARK  136  A    between atoms: _361  and  _364
REMARK  137  A    between atoms: _364  and  _365
REMARK  138  A    between atoms: _371  and  _373
REMARK  139  A    between atoms: _373  and  _374
REMARK  140  A    between atoms: _373  and  _376
REMARK  141  A    between atoms: _376  and  _377
REMARK  142  A    between atoms: _380  and  _382
REMARK  143  A    between atoms: _382  and  _383
REMARK  144  A    between atoms: _385  and  _387
REMARK  145  A    between atoms: _387  and  _388
REMARK  146  A    between atoms: _387  and  _390
REMARK  147  A    between atoms: _393  and  _395
REMARK  148  A    between atoms: _395  and  _396
REMARK  149  A    between atoms: _395  and  _398
REMARK  150  A    between atoms: _398  and  _399
REMARK  151  A    between atoms: _399  and  _400
REMARK  152  A    between atoms: _405  and  _407
REMARK  153  A    between atoms: _407  and  _408
REMARK  154  A    between atoms: _407  and  _410
REMARK  155  A    between atoms: _410  and  _411
REMARK  156  A    between atoms: _417  and  _419
REMARK  157  A    between atoms: _419  and  _420
REMARK  158  A    between atoms: _419  and  _422
REMARK  159  A    between atoms: _422  and  _423
REMARK  160  A    between atoms: _423  and  _424
REMARK  161  A    between atoms: _424  and  _425
REMARK  162  A    between atoms: _434  and  _436
REMARK  163  A    between atoms: _436  and  _437
REMARK  164  A    between atoms: _436  and  _439
REMARK  165  A    between atoms: _439  and  _440
REMARK  166  A    between atoms: _440  and  _441
REMARK  167  A    between atoms: _444  and  _445
REMARK  168  A    between atoms: _450  and  _452
REMARK  169  A    between atoms: _452  and  _453
REMARK  170  A    between atoms: _452  and  _455
REMARK  171  A    between atoms: _455  and  _456
REMARK  172  A    between atoms: _456  and  _457
REMARK  173  A    between atoms: _459  and  _461
REMARK  174  A    between atoms: _461  and  _462
REMARK  175  A    between atoms: _464  and  _466
REMARK  176  A    between atoms: _466  and  _467
REMARK  177  A    between atoms: _466  and  _469
REMARK  178  A    between atoms: _472  and  _474
REMARK  179  A    between atoms: _474  and  _475
REMARK  180  A    between atoms: _474  and  _477
REMARK  181  A    between atoms: _477  and  _478
REMARK  182  A    between atoms: _488  and  _490
REMARK  183  A    between atoms: _490  and  _491
REMARK  184  A    between atoms: _493  and  _495
REMARK  185  A    between atoms: _495  and  _496
REMARK  186  A    between atoms: _495  and  _498
REMARK  187  A    between atoms: _498  and  _499
REMARK  188  A    between atoms: _509  and  _511
REMARK  189  A    between atoms: _511  and  _512
REMARK                            x       y       z     vdW  Elec       q    Type
REMARK                         _______ _______ _______ _____ _____    ______ ____
ROOT
ATOM      1  O   HOH     1      30.739  19.165  26.719  0.00  0.00    +0.000 OA
ENDROOT
TORSDOF 0
REMARK  Name = ../refined-set-2016/2gh9/2gh9_pocket.pdb
REMARK  189 active torsions:
REMARK  status: ('A' for Active; 'I' for Inactive)
REMARK    1  A    between atoms: _1  and  _3
REMARK    2  A    between atoms: _3  and  _4
REMARK    3  A    between atoms: _3  and  _6
REMARK    4  A    between atoms: _6  and  _7
REMARK    5  A    between atoms: _10  and  _12
REMARK    6  A    between atoms: _12  and  _13
REMARK    7  A    between atoms: _12  and  _15
REMARK    8  A    between atoms: _15  and  _16
REMARK    9  A    between atoms: _21  and  _23
REMARK   10  A    between atoms: _23  and  _24
REMARK   11  A    between atoms: _23  and  _26
REMARK   12  A    between atoms: _26  and  _27
REMARK   13  A    between atoms: _33  and  _35
REMARK   14  A    between atoms: _35  and  _36
REMARK   15  A    between atoms: _38  and  _40
REMARK   16  A    between atoms: _40  and  _41
REMARK   17  A    between atoms: _40  and  _43
REMARK   18  A    between atoms: _43  and  _44
REMARK   19  A    between atoms: _44  and  _45
REMARK   20  A    between atoms: _48  and  _50
REMARK   21  A    between atoms: _50  and  _51
REMARK   22  A    between atoms: _50  and  _53
REMARK   23  A    between atoms: _57  and  _58
REMARK   24  A    between atoms: _63  and  _65
REMARK   25  A    between atoms: _65  and  _66
REMARK   26  A    between atoms: _65  and  _68
REMARK   27  A    between atoms: _68  and  _69
REMARK   28  A    between atoms: _75  and  _77
REMARK   29  A    between atoms: _77  and  _78
REMARK   30  A    between atoms: _81  and  _83
REMARK   31  A    between atoms: _83  and  _84
REMARK   32  A    between atoms: _83  and  _86
REMARK   33  A    between atoms: _86  and  _87
REMARK   34  A    between atoms: _87  and  _88
REMARK   35  A    between atoms: _91  and  _93
REMARK   36  A    between atoms: _93  and  _94
REMARK   37  A    between atoms: _93  and  _96
REMARK   38  A    between atoms: _96  and  _97
REMARK   39  A    between atoms: _100  and  _102
REMARK   40  A    between atoms: _102  and  _103
REMARK   41  A    between atoms: _102  and  _105
REMARK   42  A    between atoms: _105  and  _106
REMARK   43  A    between atoms: _106  and  _107
REMARK   44  A    between atoms: _107  and  _108
REMARK   45  A    between atoms: _108  and  _109
REMARK   46  A    between atoms: _113  and  _115
REMARK   47  A    between atoms: _115  and  _116
REMARK   48  A    between atoms: _115  and  _118
REMARK   49  A    between atoms: _118  and  _119
REMARK   50  A    between atoms: _122  and  _124
REMARK   51  A    between atoms: _124  and  _125
REMARK   52  A    between atoms: _124  and  _127
REMARK   53  A    between atoms: _131  and  _132
REMARK   54  A    between atoms: _137  and  _139
REMARK   55  A    between atoms: _139  and  _140
REMARK   56  A    between atoms: _139  and  _142
REMARK   57  A    between atoms: _142  and  _143
REMARK   58  A    between atoms: _148  and  _150
REMARK   59  A    between atoms: _150  and  _151
REMARK   60  A    between atoms: _150  and  _153
REMARK   61  A    between atoms: _153  and  _154
REMARK   62  A    between atoms: _157  and  _159
REMARK   63  A    between atoms: _159  and  _160
REMARK   64  A    between atoms: _159  and  _162
REMARK   65  A    between atoms: _162  and  _163
REMARK   66  A    between atoms: _173  and  _175
REMARK   67  A    between atoms: _175  and  _176
REMARK   68  A    between atoms: _175  and  _178
REMARK   69  A    between atoms: _181  and  _183
REMARK   70  A    between atoms: _183  and  _184
REMARK   71  A    between atoms: _183  and  _186
REMARK   72  A    between atoms: _186  and  _187
REMARK   73  A    between atoms: _187  and  _188
REMARK   74  A    between atoms: _191  and  _193
REMARK   75  A    between atoms: _193  and  _194
REMARK   76  A    between atoms: _193  and  _196
REMARK   77  A    between atoms: _196  and  _197
REMARK   78  A    between atoms: _197  and  _198
REMARK   79  A    between atoms: _201  and  _203
REMARK   80  A    between atoms: _203  and  _204
REMARK   81  A    between atoms: _203  and  _206
REMARK   82  A    between atoms: _206  and  _207
REMARK   83  A    between atoms: _209  and  _211
REMARK   84  A    between atoms: _211  and  _212
REMARK   85  A    between atoms: _211  and  _214
REMARK   86  A    between atoms: _217  and  _219
REMARK   87  A    between atoms: _219  and  _220
REMARK   88  A    between atoms: _219  and  _222
REMARK   89  A    between atoms: _222  and  _223
REMARK   90  A    between atoms: _228  and  _230
REMARK   91  A    between atoms: _230  and  _231
REMARK   92  A    between atoms: _233  and  _235
REMARK   93  A    between atoms: _235  and  _236
REMARK   94  A    between atoms: _235  and  _238
REMARK   95  A    between atoms: _238  and  _239
REMARK   96  A    between atoms: _243  and  _244
REMARK   97  A    between atoms: _249  and  _251
REMARK   98  A    between atoms: _251  and  _252
REMARK   99  A    between atoms: _251  and  _254
REMARK  100  A    between atoms: _254  and  _255
REMARK  101  A    between atoms: _260  and  _261
REMARK  102  A    between atoms: _263  and  _265
REMARK  103  A    between atoms: _265  and  _266
REMARK  104  A    between atoms: _265  and  _268
REMARK  105  A    between atoms: _268  and  _269
REMARK  106  A    between atoms: _275  and  _277
REMARK  107  A    between atoms: _277  and  _278
REMARK  108  A    between atoms: _277  and  _280
REMARK  109  A    between atoms: _280  and  _281
REMARK  110  A    between atoms: _286  and  _288
REMARK  111  A    between atoms: _288  and  _289
REMARK  112  A    between atoms: _288  and  _291
REMARK  113  A    between atoms: _291  and  _292
REMARK  114  A    between atoms: _297  and  _298
REMARK  115  A    between atoms: _300  and  _302
REMARK  116  A    between atoms: _302  and  _303
REMARK  117  A    between atoms: _305  and  _307
REMARK  118  A    between atoms: _307  and  _308
REMARK  119  A    between atoms: _307  and  _310
REMARK  120  A    between atoms: _310  and  _311
REMARK  121  A    between atoms: _314  and  _316
REMARK  122  A    between atoms: _316  and  _317
REMARK  123  A    between atoms: _316  and  _319
REMARK  124  A    between atoms: _319  and  _320
REMARK  125  A    between atoms: _325  and  _327
REMARK  126  A    between atoms: _327  and  _328
REMARK  127  A    between atoms: _331  and  _332
REMARK  128  A    between atoms: _337  and  _339
REMARK  129  A    between atoms: _339  and  _340
REMARK  130  A    between atoms: _339  and  _342
REMARK  131  A    between atoms: _342  and  _343
REMARK  132  A    between atoms: _353  and  _355
REMARK  133  A    between atoms: _355  and  _356
REMARK  134  A    between atoms: _359  and  _361
REMARK  135  A    between atoms: _361  and  _362
REMARK  136  A    between atoms: _361  and  _364
REMARK  137  A    between atoms: _364  and  _365
REMARK  138  A    between atoms: _371  and  _373
REMARK  139  A    between atoms: _373  and  _374
REMARK  140  A    between atoms: _373  and  _376
REMARK  141  A    between atoms: _376  and  _377
REMARK  142  A    between atoms: _380  and  _382
REMARK  143  A    between atoms: _382  and  _383
REMARK  144  A    between atoms: _385  and  _387
REMARK  145  A    between atoms: _387  and  _388
REMARK  146  A    between atoms: _387  and  _390
REMARK  147  A    between atoms: _393  and  _395
REMARK  148  A    between atoms: _395  and  _396
REMARK  149  A    between atoms: _395  and  _398
REMARK  150  A    between atoms: _398  and  _399
REMARK  151  A    between atoms: _399  and  _400
REMARK  152  A    between atoms: _405  and  _407
REMARK  153  A    between atoms: _407  and  _408
REMARK  154  A    between atoms: _407  and  _410
REMARK  155  A    between atoms: _410  and  _411
REMARK  156  A    between atoms: _417  and  _419
REMARK  157  A    between atoms: _419  and  _420
REMARK  158  A    between atoms: _419  and  _422
REMARK  159  A    between atoms: _422  and  _423
REMARK  160  A    between atoms: _423  and  _424
REMARK  161  A    between atoms: _424  and  _425
REMARK  162  A    between atoms: _434  and  _436
REMARK  163  A    between atoms: _436  and  _437
REMARK  164  A    between atoms: _436  and  _439
REMARK  165  A    between atoms: _439  and  _440
REMARK  166  A    between atoms: _440  and  _441
REMARK  167  A    between atoms: _444  and  _445
REMARK  168  A    between atoms: _450  and  _452
REMARK  169  A    between atoms: _452  and  _453
REMARK  170  A    between atoms: _452  and  _455
REMARK  171  A    between atoms: _455  and  _456
REMARK  172  A    between atoms: _456  and  _457
REMARK  173  A    between atoms: _459  and  _461
REMARK  174  A    between atoms: _461  and  _462
REMARK  175  A    between atoms: _464  and  _466
REMARK  176  A    between atoms: _466  and  _467
REMARK  177  A    between atoms: _466  and  _469
REMARK  178  A    between atoms: _472  and  _474
REMARK  179  A    between atoms: _474  and  _475
REMARK  180  A    between atoms: _474  and  _477
REMARK  181  A    between atoms: _477  and  _478
REMARK  182  A    between atoms: _488  and  _490
REMARK  183  A    between atoms: _490  and  _491
REMARK  184  A    between atoms: _493  and  _495
REMARK  185  A    between atoms: _495  and  _496
REMARK  186  A    between atoms: _495  and  _498
REMARK  187  A    between atoms: _498  and  _499
REMARK  188  A    between atoms: _509  and  _511
REMARK  189  A    between atoms: _511  and  _512
REMARK                            x       y       z     vdW  Elec       q    Type
REMARK                         _______ _______ _______ _____ _____    ______ ____
ROOT
ATOM      1  O   HOH     1      28.406  18.184  30.255  0.00  0.00    +0.000 OA
ENDROOT
TORSDOF 0
REMARK  Name = ../refined-set-2016/2gh9/2gh9_pocket.pdb
REMARK  189 active torsions:
REMARK  status: ('A' for Active; 'I' for Inactive)
REMARK    1  A    between atoms: _1  and  _3
REMARK    2  A    between atoms: _3  and  _4
REMARK    3  A    between atoms: _3  and  _6
REMARK    4  A    between atoms: _6  and  _7
REMARK    5  A    between atoms: _10  and  _12
REMARK    6  A    between atoms: _12  and  _13
REMARK    7  A    between atoms: _12  and  _15
REMARK    8  A    between atoms: _15  and  _16
REMARK    9  A    between atoms: _21  and  _23
REMARK   10  A    between atoms: _23  and  _24
REMARK   11  A    between atoms: _23  and  _26
REMARK   12  A    between atoms: _26  and  _27
REMARK   13  A    between atoms: _33  and  _35
REMARK   14  A    between atoms: _35  and  _36
REMARK   15  A    between atoms: _38  and  _40
REMARK   16  A    between atoms: _40  and  _41
REMARK   17  A    between atoms: _40  and  _43
REMARK   18  A    between atoms: _43  and  _44
REMARK   19  A    between atoms: _44  and  _45
REMARK   20  A    between atoms: _48  and  _50
REMARK   21  A    between atoms: _50  and  _51
REMARK   22  A    between atoms: _50  and  _53
REMARK   23  A    between atoms: _57  and  _58
REMARK   24  A    between atoms: _63  and  _65
REMARK   25  A    between atoms: _65  and  _66
REMARK   26  A    between atoms: _65  and  _68
REMARK   27  A    between atoms: _68  and  _69
REMARK   28  A    between atoms: _75  and  _77
REMARK   29  A    between atoms: _77  and  _78
REMARK   30  A    between atoms: _81  and  _83
REMARK   31  A    between atoms: _83  and  _84
REMARK   32  A    between atoms: _83  and  _86
REMARK   33  A    between atoms: _86  and  _87
REMARK   34  A    between atoms: _87  and  _88
REMARK   35  A    between atoms: _91  and  _93
REMARK   36  A    between atoms: _93  and  _94
REMARK   37  A    between atoms: _93  and  _96
REMARK   38  A    between atoms: _96  and  _97
REMARK   39  A    between atoms: _100  and  _102
REMARK   40  A    between atoms: _102  and  _103
REMARK   41  A    between atoms: _102  and  _105
REMARK   42  A    between atoms: _105  and  _106
REMARK   43  A    between atoms: _106  and  _107
REMARK   44  A    between atoms: _107  and  _108
REMARK   45  A    between atoms: _108  and  _109
REMARK   46  A    between atoms: _113  and  _115
REMARK   47  A    between atoms: _115  and  _116
REMARK   48  A    between atoms: _115  and  _118
REMARK   49  A    between atoms: _118  and  _119
REMARK   50  A    between atoms: _122  and  _124
REMARK   51  A    between atoms: _124  and  _125
REMARK   52  A    between atoms: _124  and  _127
REMARK   53  A    between atoms: _131  and  _132
REMARK   54  A    between atoms: _137  and  _139
REMARK   55  A    between atoms: _139  and  _140
REMARK   56  A    between atoms: _139  and  _142
REMARK   57  A    between atoms: _142  and  _143
REMARK   58  A    between atoms: _148  and  _150
REMARK   59  A    between atoms: _150  and  _151
REMARK   60  A    between atoms: _150  and  _153
REMARK   61  A    between atoms: _153  and  _154
REMARK   62  A    between atoms: _157  and  _159
REMARK   63  A    between atoms: _159  and  _160
REMARK   64  A    between atoms: _159  and  _162
REMARK   65  A    between atoms: _162  and  _163
REMARK   66  A    between atoms: _173  and  _175
REMARK   67  A    between atoms: _175  and  _176
REMARK   68  A    between atoms: _175  and  _178
REMARK   69  A    between atoms: _181  and  _183
REMARK   70  A    between atoms: _183  and  _184
REMARK   71  A    between atoms: _183  and  _186
REMARK   72  A    between atoms: _186  and  _187
REMARK   73  A    between atoms: _187  and  _188
REMARK   74  A    between atoms: _191  and  _193
REMARK   75  A    between atoms: _193  and  _194
REMARK   76  A    between atoms: _193  and  _196
REMARK   77  A    between atoms: _196  and  _197
REMARK   78  A    between atoms: _197  and  _198
REMARK   79  A    between atoms: _201  and  _203
REMARK   80  A    between atoms: _203  and  _204
REMARK   81  A    between atoms: _203  and  _206
REMARK   82  A    between atoms: _206  and  _207
REMARK   83  A    between atoms: _209  and  _211
REMARK   84  A    between atoms: _211  and  _212
REMARK   85  A    between atoms: _211  and  _214
REMARK   86  A    between atoms: _217  and  _219
REMARK   87  A    between atoms: _219  and  _220
REMARK   88  A    between atoms: _219  and  _222
REMARK   89  A    between atoms: _222  and  _223
REMARK   90  A    between atoms: _228  and  _230
REMARK   91  A    between atoms: _230  and  _231
REMARK   92  A    between atoms: _233  and  _235
REMARK   93  A    between atoms: _235  and  _236
REMARK   94  A    between atoms: _235  and  _238
REMARK   95  A    between atoms: _238  and  _239
REMARK   96  A    between atoms: _243  and  _244
REMARK   97  A    between atoms: _249  and  _251
REMARK   98  A    between atoms: _251  and  _252
REMARK   99  A    between atoms: _251  and  _254
REMARK  100  A    between atoms: _254  and  _255
REMARK  101  A    between atoms: _260  and  _261
REMARK  102  A    between atoms: _263  and  _265
REMARK  103  A    between atoms: _265  and  _266
REMARK  104  A    between atoms: _265  and  _268
REMARK  105  A    between atoms: _268  and  _269
REMARK  106  A    between atoms: _275  and  _277
REMARK  107  A    between atoms: _277  and  _278
REMARK  108  A    between atoms: _277  and  _280
REMARK  109  A    between atoms: _280  and  _281
REMARK  110  A    between atoms: _286  and  _288
REMARK  111  A    between atoms: _288  and  _289
REMARK  112  A    between atoms: _288  and  _291
REMARK  113  A    between atoms: _291  and  _292
REMARK  114  A    between atoms: _297  and  _298
REMARK  115  A    between atoms: _300  and  _302
REMARK  116  A    between atoms: _302  and  _303
REMARK  117  A    between atoms: _305  and  _307
REMARK  118  A    between atoms: _307  and  _308
REMARK  119  A    between atoms: _307  and  _310
REMARK  120  A    between atoms: _310  and  _311
REMARK  121  A    between atoms: _314  and  _316
REMARK  122  A    between atoms: _316  and  _317
REMARK  123  A    between atoms: _316  and  _319
REMARK  124  A    between atoms: _319  and  _320
REMARK  125  A    between atoms: _325  and  _327
REMARK  126  A    between atoms: _327  and  _328
REMARK  127  A    between atoms: _331  and  _332
REMARK  128  A    between atoms: _337  and  _339
REMARK  129  A    between atoms: _339  and  _340
REMARK  130  A    between atoms: _339  and  _342
REMARK  131  A    between atoms: _342  and  _343
REMARK  132  A    between atoms: _353  and  _355
REMARK  133  A    between atoms: _355  and  _356
REMARK  134  A    between atoms: _359  and  _361
REMARK  135  A    between atoms: _361  and  _362
REMARK  136  A    between atoms: _361  and  _364
REMARK  137  A    between atoms: _364  and  _365
REMARK  138  A    between atoms: _371  and  _373
REMARK  139  A    between atoms: _373  and  _374
REMARK  140  A    between atoms: _373  and  _376
REMARK  141  A    between atoms: _376  and  _377
REMARK  142  A    between atoms: _380  and  _382
REMARK  143  A    between atoms: _382  and  _383
REMARK  144  A    between atoms: _385  and  _387
REMARK  145  A    between atoms: _387  and  _388
REMARK  146  A    between atoms: _387  and  _390
REMARK  147  A    between atoms: _393  and  _395
REMARK  148  A    between atoms: _395  and  _396
REMARK  149  A    between atoms: _395  and  _398
REMARK  150  A    between atoms: _398  and  _399
REMARK  151  A    between atoms: _399  and  _400
REMARK  152  A    between atoms: _405  and  _407
REMARK  153  A    between atoms: _407  and  _408
REMARK  154  A    between atoms: _407  and  _410
REMARK  155  A    between atoms: _410  and  _411
REMARK  156  A    between atoms: _417  and  _419
REMARK  157  A    between atoms: _419  and  _420
REMARK  158  A    between atoms: _419  and  _422
REMARK  159  A    between atoms: _422  and  _423
REMARK  160  A    between atoms: _423  and  _424
REMARK  161  A    between atoms: _424  and  _425
REMARK  162  A    between atoms: _434  and  _436
REMARK  163  A    between atoms: _436  and  _437
REMARK  164  A    between atoms: _436  and  _439
REMARK  165  A    between atoms: _439  and  _440
REMARK  166  A    between atoms: _440  and  _441
REMARK  167  A    between atoms: _444  and  _445
REMARK  168  A    between atoms: _450  and  _452
REMARK  169  A    between atoms: _452  and  _453
REMARK  170  A    between atoms: _452  and  _455
REMARK  171  A    between atoms: _455  and  _456
REMARK  172  A    between atoms: _456  and  _457
REMARK  173  A    between atoms: _459  and  _461
REMARK  174  A    between atoms: _461  and  _462
REMARK  175  A    between atoms: _464  and  _466
REMARK  176  A    between atoms: _466  and  _467
REMARK  177  A    between atoms: _466  and  _469
REMARK  178  A    between atoms: _472  and  _474
REMARK  179  A    between atoms: _474  and  _475
REMARK  180  A    between atoms: _474  and  _477
REMARK  181  A    between atoms: _477  and  _478
REMARK  182  A    between atoms: _488  and  _490
REMARK  183  A    between atoms: _490  and  _491
REMARK  184  A    between atoms: _493  and  _495
REMARK  185  A    between atoms: _495  and  _496
REMARK  186  A    between atoms: _495  and  _498
REMARK  187  A    between atoms: _498  and  _499
REMARK  188  A    between atoms: _509  and  _511
REMARK  189  A    between atoms: _511  and  _512
REMARK                            x       y       z     vdW  Elec       q    Type
REMARK                         _______ _______ _______ _____ _____    ______ ____
ROOT
ATOM      1  O   HOH     1      29.710  19.446  24.340  0.00  0.00    +0.000 OA
ENDROOT
TORSDOF 0
REMARK  Name = ../refined-set-2016/2gh9/2gh9_pocket.pdb
REMARK  189 active torsions:
REMARK  status: ('A' for Active; 'I' for Inactive)
REMARK    1  A    between atoms: _1  and  _3
REMARK    2  A    between atoms: _3  and  _4
REMARK    3  A    between atoms: _3  and  _6
REMARK    4  A    between atoms: _6  and  _7
REMARK    5  A    between atoms: _10  and  _12
REMARK    6  A    between atoms: _12  and  _13
REMARK    7  A    between atoms: _12  and  _15
REMARK    8  A    between atoms: _15  and  _16
REMARK    9  A    between atoms: _21  and  _23
REMARK   10  A    between atoms: _23  and  _24
REMARK   11  A    between atoms: _23  and  _26
REMARK   12  A    between atoms: _26  and  _27
REMARK   13  A    between atoms: _33  and  _35
REMARK   14  A    between atoms: _35  and  _36
REMARK   15  A    between atoms: _38  and  _40
REMARK   16  A    between atoms: _40  and  _41
REMARK   17  A    between atoms: _40  and  _43
REMARK   18  A    between atoms: _43  and  _44
REMARK   19  A    between atoms: _44  and  _45
REMARK   20  A    between atoms: _48  and  _50
REMARK   21  A    between atoms: _50  and  _51
REMARK   22  A    between atoms: _50  and  _53
REMARK   23  A    between atoms: _57  and  _58
REMARK   24  A    between atoms: _63  and  _65
REMARK   25  A    between atoms: _65  and  _66
REMARK   26  A    between atoms: _65  and  _68
REMARK   27  A    between atoms: _68  and  _69
REMARK   28  A    between atoms: _75  and  _77
REMARK   29  A    between atoms: _77  and  _78
REMARK   30  A    between atoms: _81  and  _83
REMARK   31  A    between atoms: _83  and  _84
REMARK   32  A    between atoms: _83  and  _86
REMARK   33  A    between atoms: _86  and  _87
REMARK   34  A    between atoms: _87  and  _88
REMARK   35  A    between atoms: _91  and  _93
REMARK   36  A    between atoms: _93  and  _94
REMARK   37  A    between atoms: _93  and  _96
REMARK   38  A    between atoms: _96  and  _97
REMARK   39  A    between atoms: _100  and  _102
REMARK   40  A    between atoms: _102  and  _103
REMARK   41  A    between atoms: _102  and  _105
REMARK   42  A    between atoms: _105  and  _106
REMARK   43  A    between atoms: _106  and  _107
REMARK   44  A    between atoms: _107  and  _108
REMARK   45  A    between atoms: _108  and  _109
REMARK   46  A    between atoms: _113  and  _115
REMARK   47  A    between atoms: _115  and  _116
REMARK   48  A    between atoms: _115  and  _118
REMARK   49  A    between atoms: _118  and  _119
REMARK   50  A    between atoms: _122  and  _124
REMARK   51  A    between atoms: _124  and  _125
REMARK   52  A    between atoms: _124  and  _127
REMARK   53  A    between atoms: _131  and  _132
REMARK   54  A    between atoms: _137  and  _139
REMARK   55  A    between atoms: _139  and  _140
REMARK   56  A    between atoms: _139  and  _142
REMARK   57  A    between atoms: _142  and  _143
REMARK   58  A    between atoms: _148  and  _150
REMARK   59  A    between atoms: _150  and  _151
REMARK   60  A    between atoms: _150  and  _153
REMARK   61  A    between atoms: _153  and  _154
REMARK   62  A    between atoms: _157  and  _159
REMARK   63  A    between atoms: _159  and  _160
REMARK   64  A    between atoms: _159  and  _162
REMARK   65  A    between atoms: _162  and  _163
REMARK   66  A    between atoms: _173  and  _175
REMARK   67  A    between atoms: _175  and  _176
REMARK   68  A    between atoms: _175  and  _178
REMARK   69  A    between atoms: _181  and  _183
REMARK   70  A    between atoms: _183  and  _184
REMARK   71  A    between atoms: _183  and  _186
REMARK   72  A    between atoms: _186  and  _187
REMARK   73  A    between atoms: _187  and  _188
REMARK   74  A    between atoms: _191  and  _193
REMARK   75  A    between atoms: _193  and  _194
REMARK   76  A    between atoms: _193  and  _196
REMARK   77  A    between atoms: _196  and  _197
REMARK   78  A    between atoms: _197  and  _198
REMARK   79  A    between atoms: _201  and  _203
REMARK   80  A    between atoms: _203  and  _204
REMARK   81  A    between atoms: _203  and  _206
REMARK   82  A    between atoms: _206  and  _207
REMARK   83  A    between atoms: _209  and  _211
REMARK   84  A    between atoms: _211  and  _212
REMARK   85  A    between atoms: _211  and  _214
REMARK   86  A    between atoms: _217  and  _219
REMARK   87  A    between atoms: _219  and  _220
REMARK   88  A    between atoms: _219  and  _222
REMARK   89  A    between atoms: _222  and  _223
REMARK   90  A    between atoms: _228  and  _230
REMARK   91  A    between atoms: _230  and  _231
REMARK   92  A    between atoms: _233  and  _235
REMARK   93  A    between atoms: _235  and  _236
REMARK   94  A    between atoms: _235  and  _238
REMARK   95  A    between atoms: _238  and  _239
REMARK   96  A    between atoms: _243  and  _244
REMARK   97  A    between atoms: _249  and  _251
REMARK   98  A    between atoms: _251  and  _252
REMARK   99  A    between atoms: _251  and  _254
REMARK  100  A    between atoms: _254  and  _255
REMARK  101  A    between atoms: _260  and  _261
REMARK  102  A    between atoms: _263  and  _265
REMARK  103  A    between atoms: _265  and  _266
REMARK  104  A    between atoms: _265  and  _268
REMARK  105  A    between atoms: _268  and  _269
REMARK  106  A    between atoms: _275  and  _277
REMARK  107  A    between atoms: _277  and  _278
REMARK  108  A    between atoms: _277  and  _280
REMARK  109  A    between atoms: _280  and  _281
REMARK  110  A    between atoms: _286  and  _288
REMARK  111  A    between atoms: _288  and  _289
REMARK  112  A    between atoms: _288  and  _291
REMARK  113  A    between atoms: _291  and  _292
REMARK  114  A    between atoms: _297  and  _298
REMARK  115  A    between atoms: _300  and  _302
REMARK  116  A    between atoms: _302  and  _303
REMARK  117  A    between atoms: _305  and  _307
REMARK  118  A    between atoms: _307  and  _308
REMARK  119  A    between atoms: _307  and  _310
REMARK  120  A    between atoms: _310  and  _311
REMARK  121  A    between atoms: _314  and  _316
REMARK  122  A    between atoms: _316  and  _317
REMARK  123  A    between atoms: _316  and  _319
REMARK  124  A    between atoms: _319  and  _320
REMARK  125  A    between atoms: _325  and  _327
REMARK  126  A    between atoms: _327  and  _328
REMARK  127  A    between atoms: _331  and  _332
REMARK  128  A    between atoms: _337  and  _339
REMARK  129  A    between atoms: _339  and  _340
REMARK  130  A    between atoms: _339  and  _342
REMARK  131  A    between atoms: _342  and  _343
REMARK  132  A    between atoms: _353  and  _355
REMARK  133  A    between atoms: _355  and  _356
REMARK  134  A    between atoms: _359  and  _361
REMARK  135  A    between atoms: _361  and  _362
REMARK  136  A    between atoms: _361  and  _364
REMARK  137  A    between atoms: _364  and  _365
REMARK  138  A    between atoms: _371  and  _373
REMARK  139  A    between atoms: _373  and  _374
REMARK  140  A    between atoms: _373  and  _376
REMARK  141  A    between atoms: _376  and  _377
REMARK  142  A    between atoms: _380  and  _382
REMARK  143  A    between atoms: _382  and  _383
REMARK  144  A    between atoms: _385  and  _387
REMARK  145  A    between atoms: _387  and  _388
REMARK  146  A    between atoms: _387  and  _390
REMARK  147  A    between atoms: _393  and  _395
REMARK  148  A    between atoms: _395  and  _396
REMARK  149  A    between atoms: _395  and  _398
REMARK  150  A    between atoms: _398  and  _399
REMARK  151  A    between atoms: _399  and  _400
REMARK  152  A    between atoms: _405  and  _407
REMARK  153  A    between atoms: _407  and  _408
REMARK  154  A    between atoms: _407  and  _410
REMARK  155  A    between atoms: _410  and  _411
REMARK  156  A    between atoms: _417  and  _419
REMARK  157  A    between atoms: _419  and  _420
REMARK  158  A    between atoms: _419  and  _422
REMARK  159  A    between atoms: _422  and  _423
REMARK  160  A    between atoms: _423  and  _424
REMARK  161  A    between atoms: _424  and  _425
REMARK  162  A    between atoms: _434  and  _436
REMARK  163  A    between atoms: _436  and  _437
REMARK  164  A    between atoms: _436  and  _439
REMARK  165  A    between atoms: _439  and  _440
REMARK  166  A    between atoms: _440  and  _441
REMARK  167  A    between atoms: _444  and  _445
REMARK  168  A    between atoms: _450  and  _452
REMARK  169  A    between atoms: _452  and  _453
REMARK  170  A    between atoms: _452  and  _455
REMARK  171  A    between atoms: _455  and  _456
REMARK  172  A    between atoms: _456  and  _457
REMARK  173  A    between atoms: _459  and  _461
REMARK  174  A    between atoms: _461  and  _462
REMARK  175  A    between atoms: _464  and  _466
REMARK  176  A    between atoms: _466  and  _467
REMARK  177  A    between atoms: _466  and  _469
REMARK  178  A    between atoms: _472  and  _474
REMARK  179  A    between atoms: _474  and  _475
REMARK  180  A    between atoms: _474  and  _477
REMARK  181  A    between atoms: _477  and  _478
REMARK  182  A    between atoms: _488  and  _490
REMARK  183  A    between atoms: _490  and  _491
REMARK  184  A    between atoms: _493  and  _495
REMARK  185  A    between atoms: _495  and  _496
REMARK  186  A    between atoms: _495  and  _498
REMARK  187  A    between atoms: _498  and  _499
REMARK  188  A    between atoms: _509  and  _511
REMARK  189  A    between atoms: _511  and  _512
REMARK                            x       y       z     vdW  Elec       q    Type
REMARK                         _______ _______ _______ _____ _____    ______ ____
ROOT
ATOM      1  O   HOH     1      28.010  22.811  14.305  0.00  0.00    +0.000 OA
ENDROOT
TORSDOF 0
REMARK  Name = ../refined-set-2016/2gh9/2gh9_pocket.pdb
REMARK  189 active torsions:
REMARK  status: ('A' for Active; 'I' for Inactive)
REMARK    1  A    between atoms: _1  and  _3
REMARK    2  A    between atoms: _3  and  _4
REMARK    3  A    between atoms: _3  and  _6
REMARK    4  A    between atoms: _6  and  _7
REMARK    5  A    between atoms: _10  and  _12
REMARK    6  A    between atoms: _12  and  _13
REMARK    7  A    between atoms: _12  and  _15
REMARK    8  A    between atoms: _15  and  _16
REMARK    9  A    between atoms: _21  and  _23
REMARK   10  A    between atoms: _23  and  _24
REMARK   11  A    between atoms: _23  and  _26
REMARK   12  A    between atoms: _26  and  _27
REMARK   13  A    between atoms: _33  and  _35
REMARK   14  A    between atoms: _35  and  _36
REMARK   15  A    between atoms: _38  and  _40
REMARK   16  A    between atoms: _40  and  _41
REMARK   17  A    between atoms: _40  and  _43
REMARK   18  A    between atoms: _43  and  _44
REMARK   19  A    between atoms: _44  and  _45
REMARK   20  A    between atoms: _48  and  _50
REMARK   21  A    between atoms: _50  and  _51
REMARK   22  A    between atoms: _50  and  _53
REMARK   23  A    between atoms: _57  and  _58
REMARK   24  A    between atoms: _63  and  _65
REMARK   25  A    between atoms: _65  and  _66
REMARK   26  A    between atoms: _65  and  _68
REMARK   27  A    between atoms: _68  and  _69
REMARK   28  A    between atoms: _75  and  _77
REMARK   29  A    between atoms: _77  and  _78
REMARK   30  A    between atoms: _81  and  _83
REMARK   31  A    between atoms: _83  and  _84
REMARK   32  A    between atoms: _83  and  _86
REMARK   33  A    between atoms: _86  and  _87
REMARK   34  A    between atoms: _87  and  _88
REMARK   35  A    between atoms: _91  and  _93
REMARK   36  A    between atoms: _93  and  _94
REMARK   37  A    between atoms: _93  and  _96
REMARK   38  A    between atoms: _96  and  _97
REMARK   39  A    between atoms: _100  and  _102
REMARK   40  A    between atoms: _102  and  _103
REMARK   41  A    between atoms: _102  and  _105
REMARK   42  A    between atoms: _105  and  _106
REMARK   43  A    between atoms: _106  and  _107
REMARK   44  A    between atoms: _107  and  _108
REMARK   45  A    between atoms: _108  and  _109
REMARK   46  A    between atoms: _113  and  _115
REMARK   47  A    between atoms: _115  and  _116
REMARK   48  A    between atoms: _115  and  _118
REMARK   49  A    between atoms: _118  and  _119
REMARK   50  A    between atoms: _122  and  _124
REMARK   51  A    between atoms: _124  and  _125
REMARK   52  A    between atoms: _124  and  _127
REMARK   53  A    between atoms: _131  and  _132
REMARK   54  A    between atoms: _137  and  _139
REMARK   55  A    between atoms: _139  and  _140
REMARK   56  A    between atoms: _139  and  _142
REMARK   57  A    between atoms: _142  and  _143
REMARK   58  A    between atoms: _148  and  _150
REMARK   59  A    between atoms: _150  and  _151
REMARK   60  A    between atoms: _150  and  _153
REMARK   61  A    between atoms: _153  and  _154
REMARK   62  A    between atoms: _157  and  _159
REMARK   63  A    between atoms: _159  and  _160
REMARK   64  A    between atoms: _159  and  _162
REMARK   65  A    between atoms: _162  and  _163
REMARK   66  A    between atoms: _173  and  _175
REMARK   67  A    between atoms: _175  and  _176
REMARK   68  A    between atoms: _175  and  _178
REMARK   69  A    between atoms: _181  and  _183
REMARK   70  A    between atoms: _183  and  _184
REMARK   71  A    between atoms: _183  and  _186
REMARK   72  A    between atoms: _186  and  _187
REMARK   73  A    between atoms: _187  and  _188
REMARK   74  A    between atoms: _191  and  _193
REMARK   75  A    between atoms: _193  and  _194
REMARK   76  A    between atoms: _193  and  _196
REMARK   77  A    between atoms: _196  and  _197
REMARK   78  A    between atoms: _197  and  _198
REMARK   79  A    between atoms: _201  and  _203
REMARK   80  A    between atoms: _203  and  _204
REMARK   81  A    between atoms: _203  and  _206
REMARK   82  A    between atoms: _206  and  _207
REMARK   83  A    between atoms: _209  and  _211
REMARK   84  A    between atoms: _211  and  _212
REMARK   85  A    between atoms: _211  and  _214
REMARK   86  A    between atoms: _217  and  _219
REMARK   87  A    between atoms: _219  and  _220
REMARK   88  A    between atoms: _219  and  _222
REMARK   89  A    between atoms: _222  and  _223
REMARK   90  A    between atoms: _228  and  _230
REMARK   91  A    between atoms: _230  and  _231
REMARK   92  A    between atoms: _233  and  _235
REMARK   93  A    between atoms: _235  and  _236
REMARK   94  A    between atoms: _235  and  _238
REMARK   95  A    between atoms: _238  and  _239
REMARK   96  A    between atoms: _243  and  _244
REMARK   97  A    between atoms: _249  and  _251
REMARK   98  A    between atoms: _251  and  _252
REMARK   99  A    between atoms: _251  and  _254
REMARK  100  A    between atoms: _254  and  _255
REMARK  101  A    between atoms: _260  and  _261
REMARK  102  A    between atoms: _263  and  _265
REMARK  103  A    between atoms: _265  and  _266
REMARK  104  A    between atoms: _265  and  _268
REMARK  105  A    between atoms: _268  and  _269
REMARK  106  A    between atoms: _275  and  _277
REMARK  107  A    between atoms: _277  and  _278
REMARK  108  A    between atoms: _277  and  _280
REMARK  109  A    between atoms: _280  and  _281
REMARK  110  A    between atoms: _286  and  _288
REMARK  111  A    between atoms: _288  and  _289
REMARK  112  A    between atoms: _288  and  _291
REMARK  113  A    between atoms: _291  and  _292
REMARK  114  A    between atoms: _297  and  _298
REMARK  115  A    between atoms: _300  and  _302
REMARK  116  A    between atoms: _302  and  _303
REMARK  117  A    between atoms: _305  and  _307
REMARK  118  A    between atoms: _307  and  _308
REMARK  119  A    between atoms: _307  and  _310
REMARK  120  A    between atoms: _310  and  _311
REMARK  121  A    between atoms: _314  and  _316
REMARK  122  A    between atoms: _316  and  _317
REMARK  123  A    between atoms: _316  and  _319
REMARK  124  A    between atoms: _319  and  _320
REMARK  125  A    between atoms: _325  and  _327
REMARK  126  A    between atoms: _327  and  _328
REMARK  127  A    between atoms: _331  and  _332
REMARK  128  A    between atoms: _337  and  _339
REMARK  129  A    between atoms: _339  and  _340
REMARK  130  A    between atoms: _339  and  _342
REMARK  131  A    between atoms: _342  and  _343
REMARK  132  A    between atoms: _353  and  _355
REMARK  133  A    between atoms: _355  and  _356
REMARK  134  A    between atoms: _359  and  _361
REMARK  135  A    between atoms: _361  and  _362
REMARK  136  A    between atoms: _361  and  _364
REMARK  137  A    between atoms: _364  and  _365
REMARK  138  A    between atoms: _371  and  _373
REMARK  139  A    between atoms: _373  and  _374
REMARK  140  A    between atoms: _373  and  _376
REMARK  141  A    between atoms: _376  and  _377
REMARK  142  A    between atoms: _380  and  _382
REMARK  143  A    between atoms: _382  and  _383
REMARK  144  A    between atoms: _385  and  _387
REMARK  145  A    between atoms: _387  and  _388
REMARK  146  A    between atoms: _387  and  _390
REMARK  147  A    between atoms: _393  and  _395
REMARK  148  A    between atoms: _395  and  _396
REMARK  149  A    between atoms: _395  and  _398
REMARK  150  A    between atoms: _398  and  _399
REMARK  151  A    between atoms: _399  and  _400
REMARK  152  A    between atoms: _405  and  _407
REMARK  153  A    between atoms: _407  and  _408
REMARK  154  A    between atoms: _407  and  _410
REMARK  155  A    between atoms: _410  and  _411
REMARK  156  A    between atoms: _417  and  _419
REMARK  157  A    between atoms: _419  and  _420
REMARK  158  A    between atoms: _419  and  _422
REMARK  159  A    between atoms: _422  and  _423
REMARK  160  A    between atoms: _423  and  _424
REMARK  161  A    between atoms: _424  and  _425
REMARK  162  A    between atoms: _434  and  _436
REMARK  163  A    between atoms: _436  and  _437
REMARK  164  A    between atoms: _436  and  _439
REMARK  165  A    between atoms: _439  and  _440
REMARK  166  A    between atoms: _440  and  _441
REMARK  167  A    between atoms: _444  and  _445
REMARK  168  A    between atoms: _450  and  _452
REMARK  169  A    between atoms: _452  and  _453
REMARK  170  A    between atoms: _452  and  _455
REMARK  171  A    between atoms: _455  and  _456
REMARK  172  A    between atoms: _456  and  _457
REMARK  173  A    between atoms: _459  and  _461
REMARK  174  A    between atoms: _461  and  _462
REMARK  175  A    between atoms: _464  and  _466
REMARK  176  A    between atoms: _466  and  _467
REMARK  177  A    between atoms: _466  and  _469
REMARK  178  A    between atoms: _472  and  _474
REMARK  179  A    between atoms: _474  and  _475
REMARK  180  A    between atoms: _474  and  _477
REMARK  181  A    between atoms: _477  and  _478
REMARK  182  A    between atoms: _488  and  _490
REMARK  183  A    between atoms: _490  and  _491
REMARK  184  A    between atoms: _493  and  _495
REMARK  185  A    between atoms: _495  and  _496
REMARK  186  A    between atoms: _495  and  _498
REMARK  187  A    between atoms: _498  and  _499
REMARK  188  A    between atoms: _509  and  _511
REMARK  189  A    between atoms: _511  and  _512
REMARK                            x       y       z     vdW  Elec       q    Type
REMARK                         _______ _______ _______ _____ _____    ______ ____
ROOT
ATOM      1  O   HOH     1      24.751  18.923  14.154  0.00  0.00    +0.000 OA
ENDROOT
TORSDOF 0
REMARK  Name = ../refined-set-2016/2gh9/2gh9_pocket.pdb
REMARK  189 active torsions:
REMARK  status: ('A' for Active; 'I' for Inactive)
REMARK    1  A    between atoms: _1  and  _3
REMARK    2  A    between atoms: _3  and  _4
REMARK    3  A    between atoms: _3  and  _6
REMARK    4  A    between atoms: _6  and  _7
REMARK    5  A    between atoms: _10  and  _12
REMARK    6  A    between atoms: _12  and  _13
REMARK    7  A    between atoms: _12  and  _15
REMARK    8  A    between atoms: _15  and  _16
REMARK    9  A    between atoms: _21  and  _23
REMARK   10  A    between atoms: _23  and  _24
REMARK   11  A    between atoms: _23  and  _26
REMARK   12  A    between atoms: _26  and  _27
REMARK   13  A    between atoms: _33  and  _35
REMARK   14  A    between atoms: _35  and  _36
REMARK   15  A    between atoms: _38  and  _40
REMARK   16  A    between atoms: _40  and  _41
REMARK   17  A    between atoms: _40  and  _43
REMARK   18  A    between atoms: _43  and  _44
REMARK   19  A    between atoms: _44  and  _45
REMARK   20  A    between atoms: _48  and  _50
REMARK   21  A    between atoms: _50  and  _51
REMARK   22  A    between atoms: _50  and  _53
REMARK   23  A    between atoms: _57  and  _58
REMARK   24  A    between atoms: _63  and  _65
REMARK   25  A    between atoms: _65  and  _66
REMARK   26  A    between atoms: _65  and  _68
REMARK   27  A    between atoms: _68  and  _69
REMARK   28  A    between atoms: _75  and  _77
REMARK   29  A    between atoms: _77  and  _78
REMARK   30  A    between atoms: _81  and  _83
REMARK   31  A    between atoms: _83  and  _84
REMARK   32  A    between atoms: _83  and  _86
REMARK   33  A    between atoms: _86  and  _87
REMARK   34  A    between atoms: _87  and  _88
REMARK   35  A    between atoms: _91  and  _93
REMARK   36  A    between atoms: _93  and  _94
REMARK   37  A    between atoms: _93  and  _96
REMARK   38  A    between atoms: _96  and  _97
REMARK   39  A    between atoms: _100  and  _102
REMARK   40  A    between atoms: _102  and  _103
REMARK   41  A    between atoms: _102  and  _105
REMARK   42  A    between atoms: _105  and  _106
REMARK   43  A    between atoms: _106  and  _107
REMARK   44  A    between atoms: _107  and  _108
REMARK   45  A    between atoms: _108  and  _109
REMARK   46  A    between atoms: _113  and  _115
REMARK   47  A    between atoms: _115  and  _116
REMARK   48  A    between atoms: _115  and  _118
REMARK   49  A    between atoms: _118  and  _119
REMARK   50  A    between atoms: _122  and  _124
REMARK   51  A    between atoms: _124  and  _125
REMARK   52  A    between atoms: _124  and  _127
REMARK   53  A    between atoms: _131  and  _132
REMARK   54  A    between atoms: _137  and  _139
REMARK   55  A    between atoms: _139  and  _140
REMARK   56  A    between atoms: _139  and  _142
REMARK   57  A    between atoms: _142  and  _143
REMARK   58  A    between atoms: _148  and  _150
REMARK   59  A    between atoms: _150  and  _151
REMARK   60  A    between atoms: _150  and  _153
REMARK   61  A    between atoms: _153  and  _154
REMARK   62  A    between atoms: _157  and  _159
REMARK   63  A    between atoms: _159  and  _160
REMARK   64  A    between atoms: _159  and  _162
REMARK   65  A    between atoms: _162  and  _163
REMARK   66  A    between atoms: _173  and  _175
REMARK   67  A    between atoms: _175  and  _176
REMARK   68  A    between atoms: _175  and  _178
REMARK   69  A    between atoms: _181  and  _183
REMARK   70  A    between atoms: _183  and  _184
REMARK   71  A    between atoms: _183  and  _186
REMARK   72  A    between atoms: _186  and  _187
REMARK   73  A    between atoms: _187  and  _188
REMARK   74  A    between atoms: _191  and  _193
REMARK   75  A    between atoms: _193  and  _194
REMARK   76  A    between atoms: _193  and  _196
REMARK   77  A    between atoms: _196  and  _197
REMARK   78  A    between atoms: _197  and  _198
REMARK   79  A    between atoms: _201  and  _203
REMARK   80  A    between atoms: _203  and  _204
REMARK   81  A    between atoms: _203  and  _206
REMARK   82  A    between atoms: _206  and  _207
REMARK   83  A    between atoms: _209  and  _211
REMARK   84  A    between atoms: _211  and  _212
REMARK   85  A    between atoms: _211  and  _214
REMARK   86  A    between atoms: _217  and  _219
REMARK   87  A    between atoms: _219  and  _220
REMARK   88  A    between atoms: _219  and  _222
REMARK   89  A    between atoms: _222  and  _223
REMARK   90  A    between atoms: _228  and  _230
REMARK   91  A    between atoms: _230  and  _231
REMARK   92  A    between atoms: _233  and  _235
REMARK   93  A    between atoms: _235  and  _236
REMARK   94  A    between atoms: _235  and  _238
REMARK   95  A    between atoms: _238  and  _239
REMARK   96  A    between atoms: _243  and  _244
REMARK   97  A    between atoms: _249  and  _251
REMARK   98  A    between atoms: _251  and  _252
REMARK   99  A    between atoms: _251  and  _254
REMARK  100  A    between atoms: _254  and  _255
REMARK  101  A    between atoms: _260  and  _261
REMARK  102  A    between atoms: _263  and  _265
REMARK  103  A    between atoms: _265  and  _266
REMARK  104  A    between atoms: _265  and  _268
REMARK  105  A    between atoms: _268  and  _269
REMARK  106  A    between atoms: _275  and  _277
REMARK  107  A    between atoms: _277  and  _278
REMARK  108  A    between atoms: _277  and  _280
REMARK  109  A    between atoms: _280  and  _281
REMARK  110  A    between atoms: _286  and  _288
REMARK  111  A    between atoms: _288  and  _289
REMARK  112  A    between atoms: _288  and  _291
REMARK  113  A    between atoms: _291  and  _292
REMARK  114  A    between atoms: _297  and  _298
REMARK  115  A    between atoms: _300  and  _302
REMARK  116  A    between atoms: _302  and  _303
REMARK  117  A    between atoms: _305  and  _307
REMARK  118  A    between atoms: _307  and  _308
REMARK  119  A    between atoms: _307  and  _310
REMARK  120  A    between atoms: _310  and  _311
REMARK  121  A    between atoms: _314  and  _316
REMARK  122  A    between atoms: _316  and  _317
REMARK  123  A    between atoms: _316  and  _319
REMARK  124  A    between atoms: _319  and  _320
REMARK  125  A    between atoms: _325  and  _327
REMARK  126  A    between atoms: _327  and  _328
REMARK  127  A    between atoms: _331  and  _332
REMARK  128  A    between atoms: _337  and  _339
REMARK  129  A    between atoms: _339  and  _340
REMARK  130  A    between atoms: _339  and  _342
REMARK  131  A    between atoms: _342  and  _343
REMARK  132  A    between atoms: _353  and  _355
REMARK  133  A    between atoms: _355  and  _356
REMARK  134  A    between atoms: _359  and  _361
REMARK  135  A    between atoms: _361  and  _362
REMARK  136  A    between atoms: _361  and  _364
REMARK  137  A    between atoms: _364  and  _365
REMARK  138  A    between atoms: _371  and  _373
REMARK  139  A    between atoms: _373  and  _374
REMARK  140  A    between atoms: _373  and  _376
REMARK  141  A    between atoms: _376  and  _377
REMARK  142  A    between atoms: _380  and  _382
REMARK  143  A    between atoms: _382  and  _383
REMARK  144  A    between atoms: _385  and  _387
REMARK  145  A    between atoms: _387  and  _388
REMARK  146  A    between atoms: _387  and  _390
REMARK  147  A    between atoms: _393  and  _395
REMARK  148  A    between atoms: _395  and  _396
REMARK  149  A    between atoms: _395  and  _398
REMARK  150  A    between atoms: _398  and  _399
REMARK  151  A    between atoms: _399  and  _400
REMARK  152  A    between atoms: _405  and  _407
REMARK  153  A    between atoms: _407  and  _408
REMARK  154  A    between atoms: _407  and  _410
REMARK  155  A    between atoms: _410  and  _411
REMARK  156  A    between atoms: _417  and  _419
REMARK  157  A    between atoms: _419  and  _420
REMARK  158  A    between atoms: _419  and  _422
REMARK  159  A    between atoms: _422  and  _423
REMARK  160  A    between atoms: _423  and  _424
REMARK  161  A    between atoms: _424  and  _425
REMARK  162  A    between atoms: _434  and  _436
REMARK  163  A    between atoms: _436  and  _437
REMARK  164  A    between atoms: _436  and  _439
REMARK  165  A    between atoms: _439  and  _440
REMARK  166  A    between atoms: _440  and  _441
REMARK  167  A    between atoms: _444  and  _445
REMARK  168  A    between atoms: _450  and  _452
REMARK  169  A    between atoms: _452  and  _453
REMARK  170  A    between atoms: _452  and  _455
REMARK  171  A    between atoms: _455  and  _456
REMARK  172  A    between atoms: _456  and  _457
REMARK  173  A    between atoms: _459  and  _461
REMARK  174  A    between atoms: _461  and  _462
REMARK  175  A    between atoms: _464  and  _466
REMARK  176  A    between atoms: _466  and  _467
REMARK  177  A    between atoms: _466  and  _469
REMARK  178  A    between atoms: _472  and  _474
REMARK  179  A    between atoms: _474  and  _475
REMARK  180  A    between atoms: _474  and  _477
REMARK  181  A    between atoms: _477  and  _478
REMARK  182  A    between atoms: _488  and  _490
REMARK  183  A    between atoms: _490  and  _491
REMARK  184  A    between atoms: _493  and  _495
REMARK  185  A    between atoms: _495  and  _496
REMARK  186  A    between atoms: _495  and  _498
REMARK  187  A    between atoms: _498  and  _499
REMARK  188  A    between atoms: _509  and  _511
REMARK  189  A    between atoms: _511  and  _512
REMARK                            x       y       z     vdW  Elec       q    Type
REMARK                         _______ _______ _______ _____ _____    ______ ____
ROOT
ATOM      1  O   HOH     1      23.516  23.455  20.148  0.00  0.00    +0.000 OA
ENDROOT
TORSDOF 0
REMARK  Name = ../refined-set-2016/2gh9/2gh9_pocket.pdb
REMARK  189 active torsions:
REMARK  status: ('A' for Active; 'I' for Inactive)
REMARK    1  A    between atoms: _1  and  _3
REMARK    2  A    between atoms: _3  and  _4
REMARK    3  A    between atoms: _3  and  _6
REMARK    4  A    between atoms: _6  and  _7
REMARK    5  A    between atoms: _10  and  _12
REMARK    6  A    between atoms: _12  and  _13
REMARK    7  A    between atoms: _12  and  _15
REMARK    8  A    between atoms: _15  and  _16
REMARK    9  A    between atoms: _21  and  _23
REMARK   10  A    between atoms: _23  and  _24
REMARK   11  A    between atoms: _23  and  _26
REMARK   12  A    between atoms: _26  and  _27
REMARK   13  A    between atoms: _33  and  _35
REMARK   14  A    between atoms: _35  and  _36
REMARK   15  A    between atoms: _38  and  _40
REMARK   16  A    between atoms: _40  and  _41
REMARK   17  A    between atoms: _40  and  _43
REMARK   18  A    between atoms: _43  and  _44
REMARK   19  A    between atoms: _44  and  _45
REMARK   20  A    between atoms: _48  and  _50
REMARK   21  A    between atoms: _50  and  _51
REMARK   22  A    between atoms: _50  and  _53
REMARK   23  A    between atoms: _57  and  _58
REMARK   24  A    between atoms: _63  and  _65
REMARK   25  A    between atoms: _65  and  _66
REMARK   26  A    between atoms: _65  and  _68
REMARK   27  A    between atoms: _68  and  _69
REMARK   28  A    between atoms: _75  and  _77
REMARK   29  A    between atoms: _77  and  _78
REMARK   30  A    between atoms: _81  and  _83
REMARK   31  A    between atoms: _83  and  _84
REMARK   32  A    between atoms: _83  and  _86
REMARK   33  A    between atoms: _86  and  _87
REMARK   34  A    between atoms: _87  and  _88
REMARK   35  A    between atoms: _91  and  _93
REMARK   36  A    between atoms: _93  and  _94
REMARK   37  A    between atoms: _93  and  _96
REMARK   38  A    between atoms: _96  and  _97
REMARK   39  A    between atoms: _100  and  _102
REMARK   40  A    between atoms: _102  and  _103
REMARK   41  A    between atoms: _102  and  _105
REMARK   42  A    between atoms: _105  and  _106
REMARK   43  A    between atoms: _106  and  _107
REMARK   44  A    between atoms: _107  and  _108
REMARK   45  A    between atoms: _108  and  _109
REMARK   46  A    between atoms: _113  and  _115
REMARK   47  A    between atoms: _115  and  _116
REMARK   48  A    between atoms: _115  and  _118
REMARK   49  A    between atoms: _118  and  _119
REMARK   50  A    between atoms: _122  and  _124
REMARK   51  A    between atoms: _124  and  _125
REMARK   52  A    between atoms: _124  and  _127
REMARK   53  A    between atoms: _131  and  _132
REMARK   54  A    between atoms: _137  and  _139
REMARK   55  A    between atoms: _139  and  _140
REMARK   56  A    between atoms: _139  and  _142
REMARK   57  A    between atoms: _142  and  _143
REMARK   58  A    between atoms: _148  and  _150
REMARK   59  A    between atoms: _150  and  _151
REMARK   60  A    between atoms: _150  and  _153
REMARK   61  A    between atoms: _153  and  _154
REMARK   62  A    between atoms: _157  and  _159
REMARK   63  A    between atoms: _159  and  _160
REMARK   64  A    between atoms: _159  and  _162
REMARK   65  A    between atoms: _162  and  _163
REMARK   66  A    between atoms: _173  and  _175
REMARK   67  A    between atoms: _175  and  _176
REMARK   68  A    between atoms: _175  and  _178
REMARK   69  A    between atoms: _181  and  _183
REMARK   70  A    between atoms: _183  and  _184
REMARK   71  A    between atoms: _183  and  _186
REMARK   72  A    between atoms: _186  and  _187
REMARK   73  A    between atoms: _187  and  _188
REMARK   74  A    between atoms: _191  and  _193
REMARK   75  A    between atoms: _193  and  _194
REMARK   76  A    between atoms: _193  and  _196
REMARK   77  A    between atoms: _196  and  _197
REMARK   78  A    between atoms: _197  and  _198
REMARK   79  A    between atoms: _201  and  _203
REMARK   80  A    between atoms: _203  and  _204
REMARK   81  A    between atoms: _203  and  _206
REMARK   82  A    between atoms: _206  and  _207
REMARK   83  A    between atoms: _209  and  _211
REMARK   84  A    between atoms: _211  and  _212
REMARK   85  A    between atoms: _211  and  _214
REMARK   86  A    between atoms: _217  and  _219
REMARK   87  A    between atoms: _219  and  _220
REMARK   88  A    between atoms: _219  and  _222
REMARK   89  A    between atoms: _222  and  _223
REMARK   90  A    between atoms: _228  and  _230
REMARK   91  A    between atoms: _230  and  _231
REMARK   92  A    between atoms: _233  and  _235
REMARK   93  A    between atoms: _235  and  _236
REMARK   94  A    between atoms: _235  and  _238
REMARK   95  A    between atoms: _238  and  _239
REMARK   96  A    between atoms: _243  and  _244
REMARK   97  A    between atoms: _249  and  _251
REMARK   98  A    between atoms: _251  and  _252
REMARK   99  A    between atoms: _251  and  _254
REMARK  100  A    between atoms: _254  and  _255
REMARK  101  A    between atoms: _260  and  _261
REMARK  102  A    between atoms: _263  and  _265
REMARK  103  A    between atoms: _265  and  _266
REMARK  104  A    between atoms: _265  and  _268
REMARK  105  A    between atoms: _268  and  _269
REMARK  106  A    between atoms: _275  and  _277
REMARK  107  A    between atoms: _277  and  _278
REMARK  108  A    between atoms: _277  and  _280
REMARK  109  A    between atoms: _280  and  _281
REMARK  110  A    between atoms: _286  and  _288
REMARK  111  A    between atoms: _288  and  _289
REMARK  112  A    between atoms: _288  and  _291
REMARK  113  A    between atoms: _291  and  _292
REMARK  114  A    between atoms: _297  and  _298
REMARK  115  A    between atoms: _300  and  _302
REMARK  116  A    between atoms: _302  and  _303
REMARK  117  A    between atoms: _305  and  _307
REMARK  118  A    between atoms: _307  and  _308
REMARK  119  A    between atoms: _307  and  _310
REMARK  120  A    between atoms: _310  and  _311
REMARK  121  A    between atoms: _314  and  _316
REMARK  122  A    between atoms: _316  and  _317
REMARK  123  A    between atoms: _316  and  _319
REMARK  124  A    between atoms: _319  and  _320
REMARK  125  A    between atoms: _325  and  _327
REMARK  126  A    between atoms: _327  and  _328
REMARK  127  A    between atoms: _331  and  _332
REMARK  128  A    between atoms: _337  and  _339
REMARK  129  A    between atoms: _339  and  _340
REMARK  130  A    between atoms: _339  and  _342
REMARK  131  A    between atoms: _342  and  _343
REMARK  132  A    between atoms: _353  and  _355
REMARK  133  A    between atoms: _355  and  _356
REMARK  134  A    between atoms: _359  and  _361
REMARK  135  A    between atoms: _361  and  _362
REMARK  136  A    between atoms: _361  and  _364
REMARK  137  A    between atoms: _364  and  _365
REMARK  138  A    between atoms: _371  and  _373
REMARK  139  A    between atoms: _373  and  _374
REMARK  140  A    between atoms: _373  and  _376
REMARK  141  A    between atoms: _376  and  _377
REMARK  142  A    between atoms: _380  and  _382
REMARK  143  A    between atoms: _382  and  _383
REMARK  144  A    between atoms: _385  and  _387
REMARK  145  A    between atoms: _387  and  _388
REMARK  146  A    between atoms: _387  and  _390
REMARK  147  A    between atoms: _393  and  _395
REMARK  148  A    between atoms: _395  and  _396
REMARK  149  A    between atoms: _395  and  _398
REMARK  150  A    between atoms: _398  and  _399
REMARK  151  A    between atoms: _399  and  _400
REMARK  152  A    between atoms: _405  and  _407
REMARK  153  A    between atoms: _407  and  _408
REMARK  154  A    between atoms: _407  and  _410
REMARK  155  A    between atoms: _410  and  _411
REMARK  156  A    between atoms: _417  and  _419
REMARK  157  A    between atoms: _419  and  _420
REMARK  158  A    between atoms: _419  and  _422
REMARK  159  A    between atoms: _422  and  _423
REMARK  160  A    between atoms: _423  and  _424
REMARK  161  A    between atoms: _424  and  _425
REMARK  162  A    between atoms: _434  and  _436
REMARK  163  A    between atoms: _436  and  _437
REMARK  164  A    between atoms: _436  and  _439
REMARK  165  A    between atoms: _439  and  _440
REMARK  166  A    between atoms: _440  and  _441
REMARK  167  A    between atoms: _444  and  _445
REMARK  168  A    between atoms: _450  and  _452
REMARK  169  A    between atoms: _452  and  _453
REMARK  170  A    between atoms: _452  and  _455
REMARK  171  A    between atoms: _455  and  _456
REMARK  172  A    between atoms: _456  and  _457
REMARK  173  A    between atoms: _459  and  _461
REMARK  174  A    between atoms: _461  and  _462
REMARK  175  A    between atoms: _464  and  _466
REMARK  176  A    between atoms: _466  and  _467
REMARK  177  A    between atoms: _466  and  _469
REMARK  178  A    between atoms: _472  and  _474
REMARK  179  A    between atoms: _474  and  _475
REMARK  180  A    between atoms: _474  and  _477
REMARK  181  A    between atoms: _477  and  _478
REMARK  182  A    between atoms: _488  and  _490
REMARK  183  A    between atoms: _490  and  _491
REMARK  184  A    between atoms: _493  and  _495
REMARK  185  A    between atoms: _495  and  _496
REMARK  186  A    between atoms: _495  and  _498
REMARK  187  A    between atoms: _498  and  _499
REMARK  188  A    between atoms: _509  and  _511
REMARK  189  A    between atoms: _511  and  _512
REMARK                            x       y       z     vdW  Elec       q    Type
REMARK                         _______ _______ _______ _____ _____    ______ ____
ROOT
ATOM      1  O   HOH     1      22.687  21.526  29.400  0.00  0.00    +0.000 OA
ENDROOT
TORSDOF 0
REMARK  Name = ../refined-set-2016/2gh9/2gh9_pocket.pdb
REMARK  189 active torsions:
REMARK  status: ('A' for Active; 'I' for Inactive)
REMARK    1  A    between atoms: _1  and  _3
REMARK    2  A    between atoms: _3  and  _4
REMARK    3  A    between atoms: _3  and  _6
REMARK    4  A    between atoms: _6  and  _7
REMARK    5  A    between atoms: _10  and  _12
REMARK    6  A    between atoms: _12  and  _13
REMARK    7  A    between atoms: _12  and  _15
REMARK    8  A    between atoms: _15  and  _16
REMARK    9  A    between atoms: _21  and  _23
REMARK   10  A    between atoms: _23  and  _24
REMARK   11  A    between atoms: _23  and  _26
REMARK   12  A    between atoms: _26  and  _27
REMARK   13  A    between atoms: _33  and  _35
REMARK   14  A    between atoms: _35  and  _36
REMARK   15  A    between atoms: _38  and  _40
REMARK   16  A    between atoms: _40  and  _41
REMARK   17  A    between atoms: _40  and  _43
REMARK   18  A    between atoms: _43  and  _44
REMARK   19  A    between atoms: _44  and  _45
REMARK   20  A    between atoms: _48  and  _50
REMARK   21  A    between atoms: _50  and  _51
REMARK   22  A    between atoms: _50  and  _53
REMARK   23  A    between atoms: _57  and  _58
REMARK   24  A    between atoms: _63  and  _65
REMARK   25  A    between atoms: _65  and  _66
REMARK   26  A    between atoms: _65  and  _68
REMARK   27  A    between atoms: _68  and  _69
REMARK   28  A    between atoms: _75  and  _77
REMARK   29  A    between atoms: _77  and  _78
REMARK   30  A    between atoms: _81  and  _83
REMARK   31  A    between atoms: _83  and  _84
REMARK   32  A    between atoms: _83  and  _86
REMARK   33  A    between atoms: _86  and  _87
REMARK   34  A    between atoms: _87  and  _88
REMARK   35  A    between atoms: _91  and  _93
REMARK   36  A    between atoms: _93  and  _94
REMARK   37  A    between atoms: _93  and  _96
REMARK   38  A    between atoms: _96  and  _97
REMARK   39  A    between atoms: _100  and  _102
REMARK   40  A    between atoms: _102  and  _103
REMARK   41  A    between atoms: _102  and  _105
REMARK   42  A    between atoms: _105  and  _106
REMARK   43  A    between atoms: _106  and  _107
REMARK   44  A    between atoms: _107  and  _108
REMARK   45  A    between atoms: _108  and  _109
REMARK   46  A    between atoms: _113  and  _115
REMARK   47  A    between atoms: _115  and  _116
REMARK   48  A    between atoms: _115  and  _118
REMARK   49  A    between atoms: _118  and  _119
REMARK   50  A    between atoms: _122  and  _124
REMARK   51  A    between atoms: _124  and  _125
REMARK   52  A    between atoms: _124  and  _127
REMARK   53  A    between atoms: _131  and  _132
REMARK   54  A    between atoms: _137  and  _139
REMARK   55  A    between atoms: _139  and  _140
REMARK   56  A    between atoms: _139  and  _142
REMARK   57  A    between atoms: _142  and  _143
REMARK   58  A    between atoms: _148  and  _150
REMARK   59  A    between atoms: _150  and  _151
REMARK   60  A    between atoms: _150  and  _153
REMARK   61  A    between atoms: _153  and  _154
REMARK   62  A    between atoms: _157  and  _159
REMARK   63  A    between atoms: _159  and  _160
REMARK   64  A    between atoms: _159  and  _162
REMARK   65  A    between atoms: _162  and  _163
REMARK   66  A    between atoms: _173  and  _175
REMARK   67  A    between atoms: _175  and  _176
REMARK   68  A    between atoms: _175  and  _178
REMARK   69  A    between atoms: _181  and  _183
REMARK   70  A    between atoms: _183  and  _184
REMARK   71  A    between atoms: _183  and  _186
REMARK   72  A    between atoms: _186  and  _187
REMARK   73  A    between atoms: _187  and  _188
REMARK   74  A    between atoms: _191  and  _193
REMARK   75  A    between atoms: _193  and  _194
REMARK   76  A    between atoms: _193  and  _196
REMARK   77  A    between atoms: _196  and  _197
REMARK   78  A    between atoms: _197  and  _198
REMARK   79  A    between atoms: _201  and  _203
REMARK   80  A    between atoms: _203  and  _204
REMARK   81  A    between atoms: _203  and  _206
REMARK   82  A    between atoms: _206  and  _207
REMARK   83  A    between atoms: _209  and  _211
REMARK   84  A    between atoms: _211  and  _212
REMARK   85  A    between atoms: _211  and  _214
REMARK   86  A    between atoms: _217  and  _219
REMARK   87  A    between atoms: _219  and  _220
REMARK   88  A    between atoms: _219  and  _222
REMARK   89  A    between atoms: _222  and  _223
REMARK   90  A    between atoms: _228  and  _230
REMARK   91  A    between atoms: _230  and  _231
REMARK   92  A    between atoms: _233  and  _235
REMARK   93  A    between atoms: _235  and  _236
REMARK   94  A    between atoms: _235  and  _238
REMARK   95  A    between atoms: _238  and  _239
REMARK   96  A    between atoms: _243  and  _244
REMARK   97  A    between atoms: _249  and  _251
REMARK   98  A    between atoms: _251  and  _252
REMARK   99  A    between atoms: _251  and  _254
REMARK  100  A    between atoms: _254  and  _255
REMARK  101  A    between atoms: _260  and  _261
REMARK  102  A    between atoms: _263  and  _265
REMARK  103  A    between atoms: _265  and  _266
REMARK  104  A    between atoms: _265  and  _268
REMARK  105  A    between atoms: _268  and  _269
REMARK  106  A    between atoms: _275  and  _277
REMARK  107  A    between atoms: _277  and  _278
REMARK  108  A    between atoms: _277  and  _280
REMARK  109  A    between atoms: _280  and  _281
REMARK  110  A    between atoms: _286  and  _288
REMARK  111  A    between atoms: _288  and  _289
REMARK  112  A    between atoms: _288  and  _291
REMARK  113  A    between atoms: _291  and  _292
REMARK  114  A    between atoms: _297  and  _298
REMARK  115  A    between atoms: _300  and  _302
REMARK  116  A    between atoms: _302  and  _303
REMARK  117  A    between atoms: _305  and  _307
REMARK  118  A    between atoms: _307  and  _308
REMARK  119  A    between atoms: _307  and  _310
REMARK  120  A    between atoms: _310  and  _311
REMARK  121  A    between atoms: _314  and  _316
REMARK  122  A    between atoms: _316  and  _317
REMARK  123  A    between atoms: _316  and  _319
REMARK  124  A    between atoms: _319  and  _320
REMARK  125  A    between atoms: _325  and  _327
REMARK  126  A    between atoms: _327  and  _328
REMARK  127  A    between atoms: _331  and  _332
REMARK  128  A    between atoms: _337  and  _339
REMARK  129  A    between atoms: _339  and  _340
REMARK  130  A    between atoms: _339  and  _342
REMARK  131  A    between atoms: _342  and  _343
REMARK  132  A    between atoms: _353  and  _355
REMARK  133  A    between atoms: _355  and  _356
REMARK  134  A    between atoms: _359  and  _361
REMARK  135  A    between atoms: _361  and  _362
REMARK  136  A    between atoms: _361  and  _364
REMARK  137  A    between atoms: _364  and  _365
REMARK  138  A    between atoms: _371  and  _373
REMARK  139  A    between atoms: _373  and  _374
REMARK  140  A    between atoms: _373  and  _376
REMARK  141  A    between atoms: _376  and  _377
REMARK  142  A    between atoms: _380  and  _382
REMARK  143  A    between atoms: _382  and  _383
REMARK  144  A    between atoms: _385  and  _387
REMARK  145  A    between atoms: _387  and  _388
REMARK  146  A    between atoms: _387  and  _390
REMARK  147  A    between atoms: _393  and  _395
REMARK  148  A    between atoms: _395  and  _396
REMARK  149  A    between atoms: _395  and  _398
REMARK  150  A    between atoms: _398  and  _399
REMARK  151  A    between atoms: _399  and  _400
REMARK  152  A    between atoms: _405  and  _407
REMARK  153  A    between atoms: _407  and  _408
REMARK  154  A    between atoms: _407  and  _410
REMARK  155  A    between atoms: _410  and  _411
REMARK  156  A    between atoms: _417  and  _419
REMARK  157  A    between atoms: _419  and  _420
REMARK  158  A    between atoms: _419  and  _422
REMARK  159  A    between atoms: _422  and  _423
REMARK  160  A    between atoms: _423  and  _424
REMARK  161  A    between atoms: _424  and  _425
REMARK  162  A    between atoms: _434  and  _436
REMARK  163  A    between atoms: _436  and  _437
REMARK  164  A    between atoms: _436  and  _439
REMARK  165  A    between atoms: _439  and  _440
REMARK  166  A    between atoms: _440  and  _441
REMARK  167  A    between atoms: _444  and  _445
REMARK  168  A    between atoms: _450  and  _452
REMARK  169  A    between atoms: _452  and  _453
REMARK  170  A    between atoms: _452  and  _455
REMARK  171  A    between atoms: _455  and  _456
REMARK  172  A    between atoms: _456  and  _457
REMARK  173  A    between atoms: _459  and  _461
REMARK  174  A    between atoms: _461  and  _462
REMARK  175  A    between atoms: _464  and  _466
REMARK  176  A    between atoms: _466  and  _467
REMARK  177  A    between atoms: _466  and  _469
REMARK  178  A    between atoms: _472  and  _474
REMARK  179  A    between atoms: _474  and  _475
REMARK  180  A    between atoms: _474  and  _477
REMARK  181  A    between atoms: _477  and  _478
REMARK  182  A    between atoms: _488  and  _490
REMARK  183  A    between atoms: _490  and  _491
REMARK  184  A    between atoms: _493  and  _495
REMARK  185  A    between atoms: _495  and  _496
REMARK  186  A    between atoms: _495  and  _498
REMARK  187  A    between atoms: _498  and  _499
REMARK  188  A    between atoms: _509  and  _511
REMARK  189  A    between atoms: _511  and  _512
REMARK                            x       y       z     vdW  Elec       q    Type
REMARK                         _______ _______ _______ _____ _____    ______ ____
ROOT
ATOM      1  O   HOH     1      19.770  21.624  32.415  0.00  0.00    +0.000 OA
ENDROOT
TORSDOF 0
REMARK  Name = ../refined-set-2016/2gh9/2gh9_pocket.pdb
REMARK  189 active torsions:
REMARK  status: ('A' for Active; 'I' for Inactive)
REMARK    1  A    between atoms: _1  and  _3
REMARK    2  A    between atoms: _3  and  _4
REMARK    3  A    between atoms: _3  and  _6
REMARK    4  A    between atoms: _6  and  _7
REMARK    5  A    between atoms: _10  and  _12
REMARK    6  A    between atoms: _12  and  _13
REMARK    7  A    between atoms: _12  and  _15
REMARK    8  A    between atoms: _15  and  _16
REMARK    9  A    between atoms: _21  and  _23
REMARK   10  A    between atoms: _23  and  _24
REMARK   11  A    between atoms: _23  and  _26
REMARK   12  A    between atoms: _26  and  _27
REMARK   13  A    between atoms: _33  and  _35
REMARK   14  A    between atoms: _35  and  _36
REMARK   15  A    between atoms: _38  and  _40
REMARK   16  A    between atoms: _40  and  _41
REMARK   17  A    between atoms: _40  and  _43
REMARK   18  A    between atoms: _43  and  _44
REMARK   19  A    between atoms: _44  and  _45
REMARK   20  A    between atoms: _48  and  _50
REMARK   21  A    between atoms: _50  and  _51
REMARK   22  A    between atoms: _50  and  _53
REMARK   23  A    between atoms: _57  and  _58
REMARK   24  A    between atoms: _63  and  _65
REMARK   25  A    between atoms: _65  and  _66
REMARK   26  A    between atoms: _65  and  _68
REMARK   27  A    between atoms: _68  and  _69
REMARK   28  A    between atoms: _75  and  _77
REMARK   29  A    between atoms: _77  and  _78
REMARK   30  A    between atoms: _81  and  _83
REMARK   31  A    between atoms: _83  and  _84
REMARK   32  A    between atoms: _83  and  _86
REMARK   33  A    between atoms: _86  and  _87
REMARK   34  A    between atoms: _87  and  _88
REMARK   35  A    between atoms: _91  and  _93
REMARK   36  A    between atoms: _93  and  _94
REMARK   37  A    between atoms: _93  and  _96
REMARK   38  A    between atoms: _96  and  _97
REMARK   39  A    between atoms: _100  and  _102
REMARK   40  A    between atoms: _102  and  _103
REMARK   41  A    between atoms: _102  and  _105
REMARK   42  A    between atoms: _105  and  _106
REMARK   43  A    between atoms: _106  and  _107
REMARK   44  A    between atoms: _107  and  _108
REMARK   45  A    between atoms: _108  and  _109
REMARK   46  A    between atoms: _113  and  _115
REMARK   47  A    between atoms: _115  and  _116
REMARK   48  A    between atoms: _115  and  _118
REMARK   49  A    between atoms: _118  and  _119
REMARK   50  A    between atoms: _122  and  _124
REMARK   51  A    between atoms: _124  and  _125
REMARK   52  A    between atoms: _124  and  _127
REMARK   53  A    between atoms: _131  and  _132
REMARK   54  A    between atoms: _137  and  _139
REMARK   55  A    between atoms: _139  and  _140
REMARK   56  A    between atoms: _139  and  _142
REMARK   57  A    between atoms: _142  and  _143
REMARK   58  A    between atoms: _148  and  _150
REMARK   59  A    between atoms: _150  and  _151
REMARK   60  A    between atoms: _150  and  _153
REMARK   61  A    between atoms: _153  and  _154
REMARK   62  A    between atoms: _157  and  _159
REMARK   63  A    between atoms: _159  and  _160
REMARK   64  A    between atoms: _159  and  _162
REMARK   65  A    between atoms: _162  and  _163
REMARK   66  A    between atoms: _173  and  _175
REMARK   67  A    between atoms: _175  and  _176
REMARK   68  A    between atoms: _175  and  _178
REMARK   69  A    between atoms: _181  and  _183
REMARK   70  A    between atoms: _183  and  _184
REMARK   71  A    between atoms: _183  and  _186
REMARK   72  A    between atoms: _186  and  _187
REMARK   73  A    between atoms: _187  and  _188
REMARK   74  A    between atoms: _191  and  _193
REMARK   75  A    between atoms: _193  and  _194
REMARK   76  A    between atoms: _193  and  _196
REMARK   77  A    between atoms: _196  and  _197
REMARK   78  A    between atoms: _197  and  _198
REMARK   79  A    between atoms: _201  and  _203
REMARK   80  A    between atoms: _203  and  _204
REMARK   81  A    between atoms: _203  and  _206
REMARK   82  A    between atoms: _206  and  _207
REMARK   83  A    between atoms: _209  and  _211
REMARK   84  A    between atoms: _211  and  _212
REMARK   85  A    between atoms: _211  and  _214
REMARK   86  A    between atoms: _217  and  _219
REMARK   87  A    between atoms: _219  and  _220
REMARK   88  A    between atoms: _219  and  _222
REMARK   89  A    between atoms: _222  and  _223
REMARK   90  A    between atoms: _228  and  _230
REMARK   91  A    between atoms: _230  and  _231
REMARK   92  A    between atoms: _233  and  _235
REMARK   93  A    between atoms: _235  and  _236
REMARK   94  A    between atoms: _235  and  _238
REMARK   95  A    between atoms: _238  and  _239
REMARK   96  A    between atoms: _243  and  _244
REMARK   97  A    between atoms: _249  and  _251
REMARK   98  A    between atoms: _251  and  _252
REMARK   99  A    between atoms: _251  and  _254
REMARK  100  A    between atoms: _254  and  _255
REMARK  101  A    between atoms: _260  and  _261
REMARK  102  A    between atoms: _263  and  _265
REMARK  103  A    between atoms: _265  and  _266
REMARK  104  A    between atoms: _265  and  _268
REMARK  105  A    between atoms: _268  and  _269
REMARK  106  A    between atoms: _275  and  _277
REMARK  107  A    between atoms: _277  and  _278
REMARK  108  A    between atoms: _277  and  _280
REMARK  109  A    between atoms: _280  and  _281
REMARK  110  A    between atoms: _286  and  _288
REMARK  111  A    between atoms: _288  and  _289
REMARK  112  A    between atoms: _288  and  _291
REMARK  113  A    between atoms: _291  and  _292
REMARK  114  A    between atoms: _297  and  _298
REMARK  115  A    between atoms: _300  and  _302
REMARK  116  A    between atoms: _302  and  _303
REMARK  117  A    between atoms: _305  and  _307
REMARK  118  A    between atoms: _307  and  _308
REMARK  119  A    between atoms: _307  and  _310
REMARK  120  A    between atoms: _310  and  _311
REMARK  121  A    between atoms: _314  and  _316
REMARK  122  A    between atoms: _316  and  _317
REMARK  123  A    between atoms: _316  and  _319
REMARK  124  A    between atoms: _319  and  _320
REMARK  125  A    between atoms: _325  and  _327
REMARK  126  A    between atoms: _327  and  _328
REMARK  127  A    between atoms: _331  and  _332
REMARK  128  A    between atoms: _337  and  _339
REMARK  129  A    between atoms: _339  and  _340
REMARK  130  A    between atoms: _339  and  _342
REMARK  131  A    between atoms: _342  and  _343
REMARK  132  A    between atoms: _353  and  _355
REMARK  133  A    between atoms: _355  and  _356
REMARK  134  A    between atoms: _359  and  _361
REMARK  135  A    between atoms: _361  and  _362
REMARK  136  A    between atoms: _361  and  _364
REMARK  137  A    between atoms: _364  and  _365
REMARK  138  A    between atoms: _371  and  _373
REMARK  139  A    between atoms: _373  and  _374
REMARK  140  A    between atoms: _373  and  _376
REMARK  141  A    between atoms: _376  and  _377
REMARK  142  A    between atoms: _380  and  _382
REMARK  143  A    between atoms: _382  and  _383
REMARK  144  A    between atoms: _385  and  _387
REMARK  145  A    between atoms: _387  and  _388
REMARK  146  A    between atoms: _387  and  _390
REMARK  147  A    between atoms: _393  and  _395
REMARK  148  A    between atoms: _395  and  _396
REMARK  149  A    between atoms: _395  and  _398
REMARK  150  A    between atoms: _398  and  _399
REMARK  151  A    between atoms: _399  and  _400
REMARK  152  A    between atoms: _405  and  _407
REMARK  153  A    between atoms: _407  and  _408
REMARK  154  A    between atoms: _407  and  _410
REMARK  155  A    between atoms: _410  and  _411
REMARK  156  A    between atoms: _417  and  _419
REMARK  157  A    between atoms: _419  and  _420
REMARK  158  A    between atoms: _419  and  _422
REMARK  159  A    between atoms: _422  and  _423
REMARK  160  A    between atoms: _423  and  _424
REMARK  161  A    between atoms: _424  and  _425
REMARK  162  A    between atoms: _434  and  _436
REMARK  163  A    between atoms: _436  and  _437
REMARK  164  A    between atoms: _436  and  _439
REMARK  165  A    between atoms: _439  and  _440
REMARK  166  A    between atoms: _440  and  _441
REMARK  167  A    between atoms: _444  and  _445
REMARK  168  A    between atoms: _450  and  _452
REMARK  169  A    between atoms: _452  and  _453
REMARK  170  A    between atoms: _452  and  _455
REMARK  171  A    between atoms: _455  and  _456
REMARK  172  A    between atoms: _456  and  _457
REMARK  173  A    between atoms: _459  and  _461
REMARK  174  A    between atoms: _461  and  _462
REMARK  175  A    between atoms: _464  and  _466
REMARK  176  A    between atoms: _466  and  _467
REMARK  177  A    between atoms: _466  and  _469
REMARK  178  A    between atoms: _472  and  _474
REMARK  179  A    between atoms: _474  and  _475
REMARK  180  A    between atoms: _474  and  _477
REMARK  181  A    between atoms: _477  and  _478
REMARK  182  A    between atoms: _488  and  _490
REMARK  183  A    between atoms: _490  and  _491
REMARK  184  A    between atoms: _493  and  _495
REMARK  185  A    between atoms: _495  and  _496
REMARK  186  A    between atoms: _495  and  _498
REMARK  187  A    between atoms: _498  and  _499
REMARK  188  A    between atoms: _509  and  _511
REMARK  189  A    between atoms: _511  and  _512
REMARK                            x       y       z     vdW  Elec       q    Type
REMARK                         _______ _______ _______ _____ _____    ______ ____
ROOT
ATOM      1  O   HOH     1      28.027  21.137  22.391  0.00  0.00    +0.000 OA
ENDROOT
TORSDOF 0
REMARK  Name = ../refined-set-2016/2gh9/2gh9_pocket.pdb
REMARK  189 active torsions:
REMARK  status: ('A' for Active; 'I' for Inactive)
REMARK    1  A    between atoms: _1  and  _3
REMARK    2  A    between atoms: _3  and  _4
REMARK    3  A    between atoms: _3  and  _6
REMARK    4  A    between atoms: _6  and  _7
REMARK    5  A    between atoms: _10  and  _12
REMARK    6  A    between atoms: _12  and  _13
REMARK    7  A    between atoms: _12  and  _15
REMARK    8  A    between atoms: _15  and  _16
REMARK    9  A    between atoms: _21  and  _23
REMARK   10  A    between atoms: _23  and  _24
REMARK   11  A    between atoms: _23  and  _26
REMARK   12  A    between atoms: _26  and  _27
REMARK   13  A    between atoms: _33  and  _35
REMARK   14  A    between atoms: _35  and  _36
REMARK   15  A    between atoms: _38  and  _40
REMARK   16  A    between atoms: _40  and  _41
REMARK   17  A    between atoms: _40  and  _43
REMARK   18  A    between atoms: _43  and  _44
REMARK   19  A    between atoms: _44  and  _45
REMARK   20  A    between atoms: _48  and  _50
REMARK   21  A    between atoms: _50  and  _51
REMARK   22  A    between atoms: _50  and  _53
REMARK   23  A    between atoms: _57  and  _58
REMARK   24  A    between atoms: _63  and  _65
REMARK   25  A    between atoms: _65  and  _66
REMARK   26  A    between atoms: _65  and  _68
REMARK   27  A    between atoms: _68  and  _69
REMARK   28  A    between atoms: _75  and  _77
REMARK   29  A    between atoms: _77  and  _78
REMARK   30  A    between atoms: _81  and  _83
REMARK   31  A    between atoms: _83  and  _84
REMARK   32  A    between atoms: _83  and  _86
REMARK   33  A    between atoms: _86  and  _87
REMARK   34  A    between atoms: _87  and  _88
REMARK   35  A    between atoms: _91  and  _93
REMARK   36  A    between atoms: _93  and  _94
REMARK   37  A    between atoms: _93  and  _96
REMARK   38  A    between atoms: _96  and  _97
REMARK   39  A    between atoms: _100  and  _102
REMARK   40  A    between atoms: _102  and  _103
REMARK   41  A    between atoms: _102  and  _105
REMARK   42  A    between atoms: _105  and  _106
REMARK   43  A    between atoms: _106  and  _107
REMARK   44  A    between atoms: _107  and  _108
REMARK   45  A    between atoms: _108  and  _109
REMARK   46  A    between atoms: _113  and  _115
REMARK   47  A    between atoms: _115  and  _116
REMARK   48  A    between atoms: _115  and  _118
REMARK   49  A    between atoms: _118  and  _119
REMARK   50  A    between atoms: _122  and  _124
REMARK   51  A    between atoms: _124  and  _125
REMARK   52  A    between atoms: _124  and  _127
REMARK   53  A    between atoms: _131  and  _132
REMARK   54  A    between atoms: _137  and  _139
REMARK   55  A    between atoms: _139  and  _140
REMARK   56  A    between atoms: _139  and  _142
REMARK   57  A    between atoms: _142  and  _143
REMARK   58  A    between atoms: _148  and  _150
REMARK   59  A    between atoms: _150  and  _151
REMARK   60  A    between atoms: _150  and  _153
REMARK   61  A    between atoms: _153  and  _154
REMARK   62  A    between atoms: _157  and  _159
REMARK   63  A    between atoms: _159  and  _160
REMARK   64  A    between atoms: _159  and  _162
REMARK   65  A    between atoms: _162  and  _163
REMARK   66  A    between atoms: _173  and  _175
REMARK   67  A    between atoms: _175  and  _176
REMARK   68  A    between atoms: _175  and  _178
REMARK   69  A    between atoms: _181  and  _183
REMARK   70  A    between atoms: _183  and  _184
REMARK   71  A    between atoms: _183  and  _186
REMARK   72  A    between atoms: _186  and  _187
REMARK   73  A    between atoms: _187  and  _188
REMARK   74  A    between atoms: _191  and  _193
REMARK   75  A    between atoms: _193  and  _194
REMARK   76  A    between atoms: _193  and  _196
REMARK   77  A    between atoms: _196  and  _197
REMARK   78  A    between atoms: _197  and  _198
REMARK   79  A    between atoms: _201  and  _203
REMARK   80  A    between atoms: _203  and  _204
REMARK   81  A    between atoms: _203  and  _206
REMARK   82  A    between atoms: _206  and  _207
REMARK   83  A    between atoms: _209  and  _211
REMARK   84  A    between atoms: _211  and  _212
REMARK   85  A    between atoms: _211  and  _214
REMARK   86  A    between atoms: _217  and  _219
REMARK   87  A    between atoms: _219  and  _220
REMARK   88  A    between atoms: _219  and  _222
REMARK   89  A    between atoms: _222  and  _223
REMARK   90  A    between atoms: _228  and  _230
REMARK   91  A    between atoms: _230  and  _231
REMARK   92  A    between atoms: _233  and  _235
REMARK   93  A    between atoms: _235  and  _236
REMARK   94  A    between atoms: _235  and  _238
REMARK   95  A    between atoms: _238  and  _239
REMARK   96  A    between atoms: _243  and  _244
REMARK   97  A    between atoms: _249  and  _251
REMARK   98  A    between atoms: _251  and  _252
REMARK   99  A    between atoms: _251  and  _254
REMARK  100  A    between atoms: _254  and  _255
REMARK  101  A    between atoms: _260  and  _261
REMARK  102  A    between atoms: _263  and  _265
REMARK  103  A    between atoms: _265  and  _266
REMARK  104  A    between atoms: _265  and  _268
REMARK  105  A    between atoms: _268  and  _269
REMARK  106  A    between atoms: _275  and  _277
REMARK  107  A    between atoms: _277  and  _278
REMARK  108  A    between atoms: _277  and  _280
REMARK  109  A    between atoms: _280  and  _281
REMARK  110  A    between atoms: _286  and  _288
REMARK  111  A    between atoms: _288  and  _289
REMARK  112  A    between atoms: _288  and  _291
REMARK  113  A    between atoms: _291  and  _292
REMARK  114  A    between atoms: _297  and  _298
REMARK  115  A    between atoms: _300  and  _302
REMARK  116  A    between atoms: _302  and  _303
REMARK  117  A    between atoms: _305  and  _307
REMARK  118  A    between atoms: _307  and  _308
REMARK  119  A    between atoms: _307  and  _310
REMARK  120  A    between atoms: _310  and  _311
REMARK  121  A    between atoms: _314  and  _316
REMARK  122  A    between atoms: _316  and  _317
REMARK  123  A    between atoms: _316  and  _319
REMARK  124  A    between atoms: _319  and  _320
REMARK  125  A    between atoms: _325  and  _327
REMARK  126  A    between atoms: _327  and  _328
REMARK  127  A    between atoms: _331  and  _332
REMARK  128  A    between atoms: _337  and  _339
REMARK  129  A    between atoms: _339  and  _340
REMARK  130  A    between atoms: _339  and  _342
REMARK  131  A    between atoms: _342  and  _343
REMARK  132  A    between atoms: _353  and  _355
REMARK  133  A    between atoms: _355  and  _356
REMARK  134  A    between atoms: _359  and  _361
REMARK  135  A    between atoms: _361  and  _362
REMARK  136  A    between atoms: _361  and  _364
REMARK  137  A    between atoms: _364  and  _365
REMARK  138  A    between atoms: _371  and  _373
REMARK  139  A    between atoms: _373  and  _374
REMARK  140  A    between atoms: _373  and  _376
REMARK  141  A    between atoms: _376  and  _377
REMARK  142  A    between atoms: _380  and  _382
REMARK  143  A    between atoms: _382  and  _383
REMARK  144  A    between atoms: _385  and  _387
REMARK  145  A    between atoms: _387  and  _388
REMARK  146  A    between atoms: _387  and  _390
REMARK  147  A    between atoms: _393  and  _395
REMARK  148  A    between atoms: _395  and  _396
REMARK  149  A    between atoms: _395  and  _398
REMARK  150  A    between atoms: _398  and  _399
REMARK  151  A    between atoms: _399  and  _400
REMARK  152  A    between atoms: _405  and  _407
REMARK  153  A    between atoms: _407  and  _408
REMARK  154  A    between atoms: _407  and  _410
REMARK  155  A    between atoms: _410  and  _411
REMARK  156  A    between atoms: _417  and  _419
REMARK  157  A    between atoms: _419  and  _420
REMARK  158  A    between atoms: _419  and  _422
REMARK  159  A    between atoms: _422  and  _423
REMARK  160  A    between atoms: _423  and  _424
REMARK  161  A    between atoms: _424  and  _425
REMARK  162  A    between atoms: _434  and  _436
REMARK  163  A    between atoms: _436  and  _437
REMARK  164  A    between atoms: _436  and  _439
REMARK  165  A    between atoms: _439  and  _440
REMARK  166  A    between atoms: _440  and  _441
REMARK  167  A    between atoms: _444  and  _445
REMARK  168  A    between atoms: _450  and  _452
REMARK  169  A    between atoms: _452  and  _453
REMARK  170  A    between atoms: _452  and  _455
REMARK  171  A    between atoms: _455  and  _456
REMARK  172  A    between atoms: _456  and  _457
REMARK  173  A    between atoms: _459  and  _461
REMARK  174  A    between atoms: _461  and  _462
REMARK  175  A    between atoms: _464  and  _466
REMARK  176  A    between atoms: _466  and  _467
REMARK  177  A    between atoms: _466  and  _469
REMARK  178  A    between atoms: _472  and  _474
REMARK  179  A    between atoms: _474  and  _475
REMARK  180  A    between atoms: _474  and  _477
REMARK  181  A    between atoms: _477  and  _478
REMARK  182  A    between atoms: _488  and  _490
REMARK  183  A    between atoms: _490  and  _491
REMARK  184  A    between atoms: _493  and  _495
REMARK  185  A    between atoms: _495  and  _496
REMARK  186  A    between atoms: _495  and  _498
REMARK  187  A    between atoms: _498  and  _499
REMARK  188  A    between atoms: _509  and  _511
REMARK  189  A    between atoms: _511  and  _512
REMARK                            x       y       z     vdW  Elec       q    Type
REMARK                         _______ _______ _______ _____ _____    ______ ____
ROOT
ATOM      1  O   HOH     1      33.875  20.087  27.182  0.00  0.00    +0.000 OA
ENDROOT
TORSDOF 0
REMARK  Name = ../refined-set-2016/2gh9/2gh9_pocket.pdb
REMARK  189 active torsions:
REMARK  status: ('A' for Active; 'I' for Inactive)
REMARK    1  A    between atoms: _1  and  _3
REMARK    2  A    between atoms: _3  and  _4
REMARK    3  A    between atoms: _3  and  _6
REMARK    4  A    between atoms: _6  and  _7
REMARK    5  A    between atoms: _10  and  _12
REMARK    6  A    between atoms: _12  and  _13
REMARK    7  A    between atoms: _12  and  _15
REMARK    8  A    between atoms: _15  and  _16
REMARK    9  A    between atoms: _21  and  _23
REMARK   10  A    between atoms: _23  and  _24
REMARK   11  A    between atoms: _23  and  _26
REMARK   12  A    between atoms: _26  and  _27
REMARK   13  A    between atoms: _33  and  _35
REMARK   14  A    between atoms: _35  and  _36
REMARK   15  A    between atoms: _38  and  _40
REMARK   16  A    between atoms: _40  and  _41
REMARK   17  A    between atoms: _40  and  _43
REMARK   18  A    between atoms: _43  and  _44
REMARK   19  A    between atoms: _44  and  _45
REMARK   20  A    between atoms: _48  and  _50
REMARK   21  A    between atoms: _50  and  _51
REMARK   22  A    between atoms: _50  and  _53
REMARK   23  A    between atoms: _57  and  _58
REMARK   24  A    between atoms: _63  and  _65
REMARK   25  A    between atoms: _65  and  _66
REMARK   26  A    between atoms: _65  and  _68
REMARK   27  A    between atoms: _68  and  _69
REMARK   28  A    between atoms: _75  and  _77
REMARK   29  A    between atoms: _77  and  _78
REMARK   30  A    between atoms: _81  and  _83
REMARK   31  A    between atoms: _83  and  _84
REMARK   32  A    between atoms: _83  and  _86
REMARK   33  A    between atoms: _86  and  _87
REMARK   34  A    between atoms: _87  and  _88
REMARK   35  A    between atoms: _91  and  _93
REMARK   36  A    between atoms: _93  and  _94
REMARK   37  A    between atoms: _93  and  _96
REMARK   38  A    between atoms: _96  and  _97
REMARK   39  A    between atoms: _100  and  _102
REMARK   40  A    between atoms: _102  and  _103
REMARK   41  A    between atoms: _102  and  _105
REMARK   42  A    between atoms: _105  and  _106
REMARK   43  A    between atoms: _106  and  _107
REMARK   44  A    between atoms: _107  and  _108
REMARK   45  A    between atoms: _108  and  _109
REMARK   46  A    between atoms: _113  and  _115
REMARK   47  A    between atoms: _115  and  _116
REMARK   48  A    between atoms: _115  and  _118
REMARK   49  A    between atoms: _118  and  _119
REMARK   50  A    between atoms: _122  and  _124
REMARK   51  A    between atoms: _124  and  _125
REMARK   52  A    between atoms: _124  and  _127
REMARK   53  A    between atoms: _131  and  _132
REMARK   54  A    between atoms: _137  and  _139
REMARK   55  A    between atoms: _139  and  _140
REMARK   56  A    between atoms: _139  and  _142
REMARK   57  A    between atoms: _142  and  _143
REMARK   58  A    between atoms: _148  and  _150
REMARK   59  A    between atoms: _150  and  _151
REMARK   60  A    between atoms: _150  and  _153
REMARK   61  A    between atoms: _153  and  _154
REMARK   62  A    between atoms: _157  and  _159
REMARK   63  A    between atoms: _159  and  _160
REMARK   64  A    between atoms: _159  and  _162
REMARK   65  A    between atoms: _162  and  _163
REMARK   66  A    between atoms: _173  and  _175
REMARK   67  A    between atoms: _175  and  _176
REMARK   68  A    between atoms: _175  and  _178
REMARK   69  A    between atoms: _181  and  _183
REMARK   70  A    between atoms: _183  and  _184
REMARK   71  A    between atoms: _183  and  _186
REMARK   72  A    between atoms: _186  and  _187
REMARK   73  A    between atoms: _187  and  _188
REMARK   74  A    between atoms: _191  and  _193
REMARK   75  A    between atoms: _193  and  _194
REMARK   76  A    between atoms: _193  and  _196
REMARK   77  A    between atoms: _196  and  _197
REMARK   78  A    between atoms: _197  and  _198
REMARK   79  A    between atoms: _201  and  _203
REMARK   80  A    between atoms: _203  and  _204
REMARK   81  A    between atoms: _203  and  _206
REMARK   82  A    between atoms: _206  and  _207
REMARK   83  A    between atoms: _209  and  _211
REMARK   84  A    between atoms: _211  and  _212
REMARK   85  A    between atoms: _211  and  _214
REMARK   86  A    between atoms: _217  and  _219
REMARK   87  A    between atoms: _219  and  _220
REMARK   88  A    between atoms: _219  and  _222
REMARK   89  A    between atoms: _222  and  _223
REMARK   90  A    between atoms: _228  and  _230
REMARK   91  A    between atoms: _230  and  _231
REMARK   92  A    between atoms: _233  and  _235
REMARK   93  A    between atoms: _235  and  _236
REMARK   94  A    between atoms: _235  and  _238
REMARK   95  A    between atoms: _238  and  _239
REMARK   96  A    between atoms: _243  and  _244
REMARK   97  A    between atoms: _249  and  _251
REMARK   98  A    between atoms: _251  and  _252
REMARK   99  A    between atoms: _251  and  _254
REMARK  100  A    between atoms: _254  and  _255
REMARK  101  A    between atoms: _260  and  _261
REMARK  102  A    between atoms: _263  and  _265
REMARK  103  A    between atoms: _265  and  _266
REMARK  104  A    between atoms: _265  and  _268
REMARK  105  A    between atoms: _268  and  _269
REMARK  106  A    between atoms: _275  and  _277
REMARK  107  A    between atoms: _277  and  _278
REMARK  108  A    between atoms: _277  and  _280
REMARK  109  A    between atoms: _280  and  _281
REMARK  110  A    between atoms: _286  and  _288
REMARK  111  A    between atoms: _288  and  _289
REMARK  112  A    between atoms: _288  and  _291
REMARK  113  A    between atoms: _291  and  _292
REMARK  114  A    between atoms: _297  and  _298
REMARK  115  A    between atoms: _300  and  _302
REMARK  116  A    between atoms: _302  and  _303
REMARK  117  A    between atoms: _305  and  _307
REMARK  118  A    between atoms: _307  and  _308
REMARK  119  A    between atoms: _307  and  _310
REMARK  120  A    between atoms: _310  and  _311
REMARK  121  A    between atoms: _314  and  _316
REMARK  122  A    between atoms: _316  and  _317
REMARK  123  A    between atoms: _316  and  _319
REMARK  124  A    between atoms: _319  and  _320
REMARK  125  A    between atoms: _325  and  _327
REMARK  126  A    between atoms: _327  and  _328
REMARK  127  A    between atoms: _331  and  _332
REMARK  128  A    between atoms: _337  and  _339
REMARK  129  A    between atoms: _339  and  _340
REMARK  130  A    between atoms: _339  and  _342
REMARK  131  A    between atoms: _342  and  _343
REMARK  132  A    between atoms: _353  and  _355
REMARK  133  A    between atoms: _355  and  _356
REMARK  134  A    between atoms: _359  and  _361
REMARK  135  A    between atoms: _361  and  _362
REMARK  136  A    between atoms: _361  and  _364
REMARK  137  A    between atoms: _364  and  _365
REMARK  138  A    between atoms: _371  and  _373
REMARK  139  A    between atoms: _373  and  _374
REMARK  140  A    between atoms: _373  and  _376
REMARK  141  A    between atoms: _376  and  _377
REMARK  142  A    between atoms: _380  and  _382
REMARK  143  A    between atoms: _382  and  _383
REMARK  144  A    between atoms: _385  and  _387
REMARK  145  A    between atoms: _387  and  _388
REMARK  146  A    between atoms: _387  and  _390
REMARK  147  A    between atoms: _393  and  _395
REMARK  148  A    between atoms: _395  and  _396
REMARK  149  A    between atoms: _395  and  _398
REMARK  150  A    between atoms: _398  and  _399
REMARK  151  A    between atoms: _399  and  _400
REMARK  152  A    between atoms: _405  and  _407
REMARK  153  A    between atoms: _407  and  _408
REMARK  154  A    between atoms: _407  and  _410
REMARK  155  A    between atoms: _410  and  _411
REMARK  156  A    between atoms: _417  and  _419
REMARK  157  A    between atoms: _419  and  _420
REMARK  158  A    between atoms: _419  and  _422
REMARK  159  A    between atoms: _422  and  _423
REMARK  160  A    between atoms: _423  and  _424
REMARK  161  A    between atoms: _424  and  _425
REMARK  162  A    between atoms: _434  and  _436
REMARK  163  A    between atoms: _436  and  _437
REMARK  164  A    between atoms: _436  and  _439
REMARK  165  A    between atoms: _439  and  _440
REMARK  166  A    between atoms: _440  and  _441
REMARK  167  A    between atoms: _444  and  _445
REMARK  168  A    between atoms: _450  and  _452
REMARK  169  A    between atoms: _452  and  _453
REMARK  170  A    between atoms: _452  and  _455
REMARK  171  A    between atoms: _455  and  _456
REMARK  172  A    between atoms: _456  and  _457
REMARK  173  A    between atoms: _459  and  _461
REMARK  174  A    between atoms: _461  and  _462
REMARK  175  A    between atoms: _464  and  _466
REMARK  176  A    between atoms: _466  and  _467
REMARK  177  A    between atoms: _466  and  _469
REMARK  178  A    between atoms: _472  and  _474
REMARK  179  A    between atoms: _474  and  _475
REMARK  180  A    between atoms: _474  and  _477
REMARK  181  A    between atoms: _477  and  _478
REMARK  182  A    between atoms: _488  and  _490
REMARK  183  A    between atoms: _490  and  _491
REMARK  184  A    between atoms: _493  and  _495
REMARK  185  A    between atoms: _495  and  _496
REMARK  186  A    between atoms: _495  and  _498
REMARK  187  A    between atoms: _498  and  _499
REMARK  188  A    between atoms: _509  and  _511
REMARK  189  A    between atoms: _511  and  _512
REMARK                            x       y       z     vdW  Elec       q    Type
REMARK                         _______ _______ _______ _____ _____    ______ ____
ROOT
ATOM      1  O   HOH     1      31.458  18.654  29.041  0.00  0.00    +0.000 OA
ENDROOT
TORSDOF 0
REMARK  Name = ../refined-set-2016/2gh9/2gh9_pocket.pdb
REMARK  189 active torsions:
REMARK  status: ('A' for Active; 'I' for Inactive)
REMARK    1  A    between atoms: _1  and  _3
REMARK    2  A    between atoms: _3  and  _4
REMARK    3  A    between atoms: _3  and  _6
REMARK    4  A    between atoms: _6  and  _7
REMARK    5  A    between atoms: _10  and  _12
REMARK    6  A    between atoms: _12  and  _13
REMARK    7  A    between atoms: _12  and  _15
REMARK    8  A    between atoms: _15  and  _16
REMARK    9  A    between atoms: _21  and  _23
REMARK   10  A    between atoms: _23  and  _24
REMARK   11  A    between atoms: _23  and  _26
REMARK   12  A    between atoms: _26  and  _27
REMARK   13  A    between atoms: _33  and  _35
REMARK   14  A    between atoms: _35  and  _36
REMARK   15  A    between atoms: _38  and  _40
REMARK   16  A    between atoms: _40  and  _41
REMARK   17  A    between atoms: _40  and  _43
REMARK   18  A    between atoms: _43  and  _44
REMARK   19  A    between atoms: _44  and  _45
REMARK   20  A    between atoms: _48  and  _50
REMARK   21  A    between atoms: _50  and  _51
REMARK   22  A    between atoms: _50  and  _53
REMARK   23  A    between atoms: _57  and  _58
REMARK   24  A    between atoms: _63  and  _65
REMARK   25  A    between atoms: _65  and  _66
REMARK   26  A    between atoms: _65  and  _68
REMARK   27  A    between atoms: _68  and  _69
REMARK   28  A    between atoms: _75  and  _77
REMARK   29  A    between atoms: _77  and  _78
REMARK   30  A    between atoms: _81  and  _83
REMARK   31  A    between atoms: _83  and  _84
REMARK   32  A    between atoms: _83  and  _86
REMARK   33  A    between atoms: _86  and  _87
REMARK   34  A    between atoms: _87  and  _88
REMARK   35  A    between atoms: _91  and  _93
REMARK   36  A    between atoms: _93  and  _94
REMARK   37  A    between atoms: _93  and  _96
REMARK   38  A    between atoms: _96  and  _97
REMARK   39  A    between atoms: _100  and  _102
REMARK   40  A    between atoms: _102  and  _103
REMARK   41  A    between atoms: _102  and  _105
REMARK   42  A    between atoms: _105  and  _106
REMARK   43  A    between atoms: _106  and  _107
REMARK   44  A    between atoms: _107  and  _108
REMARK   45  A    between atoms: _108  and  _109
REMARK   46  A    between atoms: _113  and  _115
REMARK   47  A    between atoms: _115  and  _116
REMARK   48  A    between atoms: _115  and  _118
REMARK   49  A    between atoms: _118  and  _119
REMARK   50  A    between atoms: _122  and  _124
REMARK   51  A    between atoms: _124  and  _125
REMARK   52  A    between atoms: _124  and  _127
REMARK   53  A    between atoms: _131  and  _132
REMARK   54  A    between atoms: _137  and  _139
REMARK   55  A    between atoms: _139  and  _140
REMARK   56  A    between atoms: _139  and  _142
REMARK   57  A    between atoms: _142  and  _143
REMARK   58  A    between atoms: _148  and  _150
REMARK   59  A    between atoms: _150  and  _151
REMARK   60  A    between atoms: _150  and  _153
REMARK   61  A    between atoms: _153  and  _154
REMARK   62  A    between atoms: _157  and  _159
REMARK   63  A    between atoms: _159  and  _160
REMARK   64  A    between atoms: _159  and  _162
REMARK   65  A    between atoms: _162  and  _163
REMARK   66  A    between atoms: _173  and  _175
REMARK   67  A    between atoms: _175  and  _176
REMARK   68  A    between atoms: _175  and  _178
REMARK   69  A    between atoms: _181  and  _183
REMARK   70  A    between atoms: _183  and  _184
REMARK   71  A    between atoms: _183  and  _186
REMARK   72  A    between atoms: _186  and  _187
REMARK   73  A    between atoms: _187  and  _188
REMARK   74  A    between atoms: _191  and  _193
REMARK   75  A    between atoms: _193  and  _194
REMARK   76  A    between atoms: _193  and  _196
REMARK   77  A    between atoms: _196  and  _197
REMARK   78  A    between atoms: _197  and  _198
REMARK   79  A    between atoms: _201  and  _203
REMARK   80  A    between atoms: _203  and  _204
REMARK   81  A    between atoms: _203  and  _206
REMARK   82  A    between atoms: _206  and  _207
REMARK   83  A    between atoms: _209  and  _211
REMARK   84  A    between atoms: _211  and  _212
REMARK   85  A    between atoms: _211  and  _214
REMARK   86  A    between atoms: _217  and  _219
REMARK   87  A    between atoms: _219  and  _220
REMARK   88  A    between atoms: _219  and  _222
REMARK   89  A    between atoms: _222  and  _223
REMARK   90  A    between atoms: _228  and  _230
REMARK   91  A    between atoms: _230  and  _231
REMARK   92  A    between atoms: _233  and  _235
REMARK   93  A    between atoms: _235  and  _236
REMARK   94  A    between atoms: _235  and  _238
REMARK   95  A    between atoms: _238  and  _239
REMARK   96  A    between atoms: _243  and  _244
REMARK   97  A    between atoms: _249  and  _251
REMARK   98  A    between atoms: _251  and  _252
REMARK   99  A    between atoms: _251  and  _254
REMARK  100  A    between atoms: _254  and  _255
REMARK  101  A    between atoms: _260  and  _261
REMARK  102  A    between atoms: _263  and  _265
REMARK  103  A    between atoms: _265  and  _266
REMARK  104  A    between atoms: _265  and  _268
REMARK  105  A    between atoms: _268  and  _269
REMARK  106  A    between atoms: _275  and  _277
REMARK  107  A    between atoms: _277  and  _278
REMARK  108  A    between atoms: _277  and  _280
REMARK  109  A    between atoms: _280  and  _281
REMARK  110  A    between atoms: _286  and  _288
REMARK  111  A    between atoms: _288  and  _289
REMARK  112  A    between atoms: _288  and  _291
REMARK  113  A    between atoms: _291  and  _292
REMARK  114  A    between atoms: _297  and  _298
REMARK  115  A    between atoms: _300  and  _302
REMARK  116  A    between atoms: _302  and  _303
REMARK  117  A    between atoms: _305  and  _307
REMARK  118  A    between atoms: _307  and  _308
REMARK  119  A    between atoms: _307  and  _310
REMARK  120  A    between atoms: _310  and  _311
REMARK  121  A    between atoms: _314  and  _316
REMARK  122  A    between atoms: _316  and  _317
REMARK  123  A    between atoms: _316  and  _319
REMARK  124  A    between atoms: _319  and  _320
REMARK  125  A    between atoms: _325  and  _327
REMARK  126  A    between atoms: _327  and  _328
REMARK  127  A    between atoms: _331  and  _332
REMARK  128  A    between atoms: _337  and  _339
REMARK  129  A    between atoms: _339  and  _340
REMARK  130  A    between atoms: _339  and  _342
REMARK  131  A    between atoms: _342  and  _343
REMARK  132  A    between atoms: _353  and  _355
REMARK  133  A    between atoms: _355  and  _356
REMARK  134  A    between atoms: _359  and  _361
REMARK  135  A    between atoms: _361  and  _362
REMARK  136  A    between atoms: _361  and  _364
REMARK  137  A    between atoms: _364  and  _365
REMARK  138  A    between atoms: _371  and  _373
REMARK  139  A    between atoms: _373  and  _374
REMARK  140  A    between atoms: _373  and  _376
REMARK  141  A    between atoms: _376  and  _377
REMARK  142  A    between atoms: _380  and  _382
REMARK  143  A    between atoms: _382  and  _383
REMARK  144  A    between atoms: _385  and  _387
REMARK  145  A    between atoms: _387  and  _388
REMARK  146  A    between atoms: _387  and  _390
REMARK  147  A    between atoms: _393  and  _395
REMARK  148  A    between atoms: _395  and  _396
REMARK  149  A    between atoms: _395  and  _398
REMARK  150  A    between atoms: _398  and  _399
REMARK  151  A    between atoms: _399  and  _400
REMARK  152  A    between atoms: _405  and  _407
REMARK  153  A    between atoms: _407  and  _408
REMARK  154  A    between atoms: _407  and  _410
REMARK  155  A    between atoms: _410  and  _411
REMARK  156  A    between atoms: _417  and  _419
REMARK  157  A    between atoms: _419  and  _420
REMARK  158  A    between atoms: _419  and  _422
REMARK  159  A    between atoms: _422  and  _423
REMARK  160  A    between atoms: _423  and  _424
REMARK  161  A    between atoms: _424  and  _425
REMARK  162  A    between atoms: _434  and  _436
REMARK  163  A    between atoms: _436  and  _437
REMARK  164  A    between atoms: _436  and  _439
REMARK  165  A    between atoms: _439  and  _440
REMARK  166  A    between atoms: _440  and  _441
REMARK  167  A    between atoms: _444  and  _445
REMARK  168  A    between atoms: _450  and  _452
REMARK  169  A    between atoms: _452  and  _453
REMARK  170  A    between atoms: _452  and  _455
REMARK  171  A    between atoms: _455  and  _456
REMARK  172  A    between atoms: _456  and  _457
REMARK  173  A    between atoms: _459  and  _461
REMARK  174  A    between atoms: _461  and  _462
REMARK  175  A    between atoms: _464  and  _466
REMARK  176  A    between atoms: _466  and  _467
REMARK  177  A    between atoms: _466  and  _469
REMARK  178  A    between atoms: _472  and  _474
REMARK  179  A    between atoms: _474  and  _475
REMARK  180  A    between atoms: _474  and  _477
REMARK  181  A    between atoms: _477  and  _478
REMARK  182  A    between atoms: _488  and  _490
REMARK  183  A    between atoms: _490  and  _491
REMARK  184  A    between atoms: _493  and  _495
REMARK  185  A    between atoms: _495  and  _496
REMARK  186  A    between atoms: _495  and  _498
REMARK  187  A    between atoms: _498  and  _499
REMARK  188  A    between atoms: _509  and  _511
REMARK  189  A    between atoms: _511  and  _512
REMARK                            x       y       z     vdW  Elec       q    Type
REMARK                         _______ _______ _______ _____ _____    ______ ____
ROOT
ATOM      1  O   HOH     1      21.882  18.115  33.487  0.00  0.00    +0.000 OA
ENDROOT
TORSDOF 0
REMARK  Name = ../refined-set-2016/2gh9/2gh9_pocket.pdb
REMARK  189 active torsions:
REMARK  status: ('A' for Active; 'I' for Inactive)
REMARK    1  A    between atoms: _1  and  _3
REMARK    2  A    between atoms: _3  and  _4
REMARK    3  A    between atoms: _3  and  _6
REMARK    4  A    between atoms: _6  and  _7
REMARK    5  A    between atoms: _10  and  _12
REMARK    6  A    between atoms: _12  and  _13
REMARK    7  A    between atoms: _12  and  _15
REMARK    8  A    between atoms: _15  and  _16
REMARK    9  A    between atoms: _21  and  _23
REMARK   10  A    between atoms: _23  and  _24
REMARK   11  A    between atoms: _23  and  _26
REMARK   12  A    between atoms: _26  and  _27
REMARK   13  A    between atoms: _33  and  _35
REMARK   14  A    between atoms: _35  and  _36
REMARK   15  A    between atoms: _38  and  _40
REMARK   16  A    between atoms: _40  and  _41
REMARK   17  A    between atoms: _40  and  _43
REMARK   18  A    between atoms: _43  and  _44
REMARK   19  A    between atoms: _44  and  _45
REMARK   20  A    between atoms: _48  and  _50
REMARK   21  A    between atoms: _50  and  _51
REMARK   22  A    between atoms: _50  and  _53
REMARK   23  A    between atoms: _57  and  _58
REMARK   24  A    between atoms: _63  and  _65
REMARK   25  A    between atoms: _65  and  _66
REMARK   26  A    between atoms: _65  and  _68
REMARK   27  A    between atoms: _68  and  _69
REMARK   28  A    between atoms: _75  and  _77
REMARK   29  A    between atoms: _77  and  _78
REMARK   30  A    between atoms: _81  and  _83
REMARK   31  A    between atoms: _83  and  _84
REMARK   32  A    between atoms: _83  and  _86
REMARK   33  A    between atoms: _86  and  _87
REMARK   34  A    between atoms: _87  and  _88
REMARK   35  A    between atoms: _91  and  _93
REMARK   36  A    between atoms: _93  and  _94
REMARK   37  A    between atoms: _93  and  _96
REMARK   38  A    between atoms: _96  and  _97
REMARK   39  A    between atoms: _100  and  _102
REMARK   40  A    between atoms: _102  and  _103
REMARK   41  A    between atoms: _102  and  _105
REMARK   42  A    between atoms: _105  and  _106
REMARK   43  A    between atoms: _106  and  _107
REMARK   44  A    between atoms: _107  and  _108
REMARK   45  A    between atoms: _108  and  _109
REMARK   46  A    between atoms: _113  and  _115
REMARK   47  A    between atoms: _115  and  _116
REMARK   48  A    between atoms: _115  and  _118
REMARK   49  A    between atoms: _118  and  _119
REMARK   50  A    between atoms: _122  and  _124
REMARK   51  A    between atoms: _124  and  _125
REMARK   52  A    between atoms: _124  and  _127
REMARK   53  A    between atoms: _131  and  _132
REMARK   54  A    between atoms: _137  and  _139
REMARK   55  A    between atoms: _139  and  _140
REMARK   56  A    between atoms: _139  and  _142
REMARK   57  A    between atoms: _142  and  _143
REMARK   58  A    between atoms: _148  and  _150
REMARK   59  A    between atoms: _150  and  _151
REMARK   60  A    between atoms: _150  and  _153
REMARK   61  A    between atoms: _153  and  _154
REMARK   62  A    between atoms: _157  and  _159
REMARK   63  A    between atoms: _159  and  _160
REMARK   64  A    between atoms: _159  and  _162
REMARK   65  A    between atoms: _162  and  _163
REMARK   66  A    between atoms: _173  and  _175
REMARK   67  A    between atoms: _175  and  _176
REMARK   68  A    between atoms: _175  and  _178
REMARK   69  A    between atoms: _181  and  _183
REMARK   70  A    between atoms: _183  and  _184
REMARK   71  A    between atoms: _183  and  _186
REMARK   72  A    between atoms: _186  and  _187
REMARK   73  A    between atoms: _187  and  _188
REMARK   74  A    between atoms: _191  and  _193
REMARK   75  A    between atoms: _193  and  _194
REMARK   76  A    between atoms: _193  and  _196
REMARK   77  A    between atoms: _196  and  _197
REMARK   78  A    between atoms: _197  and  _198
REMARK   79  A    between atoms: _201  and  _203
REMARK   80  A    between atoms: _203  and  _204
REMARK   81  A    between atoms: _203  and  _206
REMARK   82  A    between atoms: _206  and  _207
REMARK   83  A    between atoms: _209  and  _211
REMARK   84  A    between atoms: _211  and  _212
REMARK   85  A    between atoms: _211  and  _214
REMARK   86  A    between atoms: _217  and  _219
REMARK   87  A    between atoms: _219  and  _220
REMARK   88  A    between atoms: _219  and  _222
REMARK   89  A    between atoms: _222  and  _223
REMARK   90  A    between atoms: _228  and  _230
REMARK   91  A    between atoms: _230  and  _231
REMARK   92  A    between atoms: _233  and  _235
REMARK   93  A    between atoms: _235  and  _236
REMARK   94  A    between atoms: _235  and  _238
REMARK   95  A    between atoms: _238  and  _239
REMARK   96  A    between atoms: _243  and  _244
REMARK   97  A    between atoms: _249  and  _251
REMARK   98  A    between atoms: _251  and  _252
REMARK   99  A    between atoms: _251  and  _254
REMARK  100  A    between atoms: _254  and  _255
REMARK  101  A    between atoms: _260  and  _261
REMARK  102  A    between atoms: _263  and  _265
REMARK  103  A    between atoms: _265  and  _266
REMARK  104  A    between atoms: _265  and  _268
REMARK  105  A    between atoms: _268  and  _269
REMARK  106  A    between atoms: _275  and  _277
REMARK  107  A    between atoms: _277  and  _278
REMARK  108  A    between atoms: _277  and  _280
REMARK  109  A    between atoms: _280  and  _281
REMARK  110  A    between atoms: _286  and  _288
REMARK  111  A    between atoms: _288  and  _289
REMARK  112  A    between atoms: _288  and  _291
REMARK  113  A    between atoms: _291  and  _292
REMARK  114  A    between atoms: _297  and  _298
REMARK  115  A    between atoms: _300  and  _302
REMARK  116  A    between atoms: _302  and  _303
REMARK  117  A    between atoms: _305  and  _307
REMARK  118  A    between atoms: _307  and  _308
REMARK  119  A    between atoms: _307  and  _310
REMARK  120  A    between atoms: _310  and  _311
REMARK  121  A    between atoms: _314  and  _316
REMARK  122  A    between atoms: _316  and  _317
REMARK  123  A    between atoms: _316  and  _319
REMARK  124  A    between atoms: _319  and  _320
REMARK  125  A    between atoms: _325  and  _327
REMARK  126  A    between atoms: _327  and  _328
REMARK  127  A    between atoms: _331  and  _332
REMARK  128  A    between atoms: _337  and  _339
REMARK  129  A    between atoms: _339  and  _340
REMARK  130  A    between atoms: _339  and  _342
REMARK  131  A    between atoms: _342  and  _343
REMARK  132  A    between atoms: _353  and  _355
REMARK  133  A    between atoms: _355  and  _356
REMARK  134  A    between atoms: _359  and  _361
REMARK  135  A    between atoms: _361  and  _362
REMARK  136  A    between atoms: _361  and  _364
REMARK  137  A    between atoms: _364  and  _365
REMARK  138  A    between atoms: _371  and  _373
REMARK  139  A    between atoms: _373  and  _374
REMARK  140  A    between atoms: _373  and  _376
REMARK  141  A    between atoms: _376  and  _377
REMARK  142  A    between atoms: _380  and  _382
REMARK  143  A    between atoms: _382  and  _383
REMARK  144  A    between atoms: _385  and  _387
REMARK  145  A    between atoms: _387  and  _388
REMARK  146  A    between atoms: _387  and  _390
REMARK  147  A    between atoms: _393  and  _395
REMARK  148  A    between atoms: _395  and  _396
REMARK  149  A    between atoms: _395  and  _398
REMARK  150  A    between atoms: _398  and  _399
REMARK  151  A    between atoms: _399  and  _400
REMARK  152  A    between atoms: _405  and  _407
REMARK  153  A    between atoms: _407  and  _408
REMARK  154  A    between atoms: _407  and  _410
REMARK  155  A    between atoms: _410  and  _411
REMARK  156  A    between atoms: _417  and  _419
REMARK  157  A    between atoms: _419  and  _420
REMARK  158  A    between atoms: _419  and  _422
REMARK  159  A    between atoms: _422  and  _423
REMARK  160  A    between atoms: _423  and  _424
REMARK  161  A    between atoms: _424  and  _425
REMARK  162  A    between atoms: _434  and  _436
REMARK  163  A    between atoms: _436  and  _437
REMARK  164  A    between atoms: _436  and  _439
REMARK  165  A    between atoms: _439  and  _440
REMARK  166  A    between atoms: _440  and  _441
REMARK  167  A    between atoms: _444  and  _445
REMARK  168  A    between atoms: _450  and  _452
REMARK  169  A    between atoms: _452  and  _453
REMARK  170  A    between atoms: _452  and  _455
REMARK  171  A    between atoms: _455  and  _456
REMARK  172  A    between atoms: _456  and  _457
REMARK  173  A    between atoms: _459  and  _461
REMARK  174  A    between atoms: _461  and  _462
REMARK  175  A    between atoms: _464  and  _466
REMARK  176  A    between atoms: _466  and  _467
REMARK  177  A    between atoms: _466  and  _469
REMARK  178  A    between atoms: _472  and  _474
REMARK  179  A    between atoms: _474  and  _475
REMARK  180  A    between atoms: _474  and  _477
REMARK  181  A    between atoms: _477  and  _478
REMARK  182  A    between atoms: _488  and  _490
REMARK  183  A    between atoms: _490  and  _491
REMARK  184  A    between atoms: _493  and  _495
REMARK  185  A    between atoms: _495  and  _496
REMARK  186  A    between atoms: _495  and  _498
REMARK  187  A    between atoms: _498  and  _499
REMARK  188  A    between atoms: _509  and  _511
REMARK  189  A    between atoms: _511  and  _512
REMARK                            x       y       z     vdW  Elec       q    Type
REMARK                         _______ _______ _______ _____ _____    ______ ____
ROOT
ATOM      1  O   HOH     1      27.466  23.310  19.138  0.00  0.00    +0.000 OA
ENDROOT
TORSDOF 0
REMARK  Name = ../refined-set-2016/2gh9/2gh9_pocket.pdb
REMARK  189 active torsions:
REMARK  status: ('A' for Active; 'I' for Inactive)
REMARK    1  A    between atoms: _1  and  _3
REMARK    2  A    between atoms: _3  and  _4
REMARK    3  A    between atoms: _3  and  _6
REMARK    4  A    between atoms: _6  and  _7
REMARK    5  A    between atoms: _10  and  _12
REMARK    6  A    between atoms: _12  and  _13
REMARK    7  A    between atoms: _12  and  _15
REMARK    8  A    between atoms: _15  and  _16
REMARK    9  A    between atoms: _21  and  _23
REMARK   10  A    between atoms: _23  and  _24
REMARK   11  A    between atoms: _23  and  _26
REMARK   12  A    between atoms: _26  and  _27
REMARK   13  A    between atoms: _33  and  _35
REMARK   14  A    between atoms: _35  and  _36
REMARK   15  A    between atoms: _38  and  _40
REMARK   16  A    between atoms: _40  and  _41
REMARK   17  A    between atoms: _40  and  _43
REMARK   18  A    between atoms: _43  and  _44
REMARK   19  A    between atoms: _44  and  _45
REMARK   20  A    between atoms: _48  and  _50
REMARK   21  A    between atoms: _50  and  _51
REMARK   22  A    between atoms: _50  and  _53
REMARK   23  A    between atoms: _57  and  _58
REMARK   24  A    between atoms: _63  and  _65
REMARK   25  A    between atoms: _65  and  _66
REMARK   26  A    between atoms: _65  and  _68
REMARK   27  A    between atoms: _68  and  _69
REMARK   28  A    between atoms: _75  and  _77
REMARK   29  A    between atoms: _77  and  _78
REMARK   30  A    between atoms: _81  and  _83
REMARK   31  A    between atoms: _83  and  _84
REMARK   32  A    between atoms: _83  and  _86
REMARK   33  A    between atoms: _86  and  _87
REMARK   34  A    between atoms: _87  and  _88
REMARK   35  A    between atoms: _91  and  _93
REMARK   36  A    between atoms: _93  and  _94
REMARK   37  A    between atoms: _93  and  _96
REMARK   38  A    between atoms: _96  and  _97
REMARK   39  A    between atoms: _100  and  _102
REMARK   40  A    between atoms: _102  and  _103
REMARK   41  A    between atoms: _102  and  _105
REMARK   42  A    between atoms: _105  and  _106
REMARK   43  A    between atoms: _106  and  _107
REMARK   44  A    between atoms: _107  and  _108
REMARK   45  A    between atoms: _108  and  _109
REMARK   46  A    between atoms: _113  and  _115
REMARK   47  A    between atoms: _115  and  _116
REMARK   48  A    between atoms: _115  and  _118
REMARK   49  A    between atoms: _118  and  _119
REMARK   50  A    between atoms: _122  and  _124
REMARK   51  A    between atoms: _124  and  _125
REMARK   52  A    between atoms: _124  and  _127
REMARK   53  A    between atoms: _131  and  _132
REMARK   54  A    between atoms: _137  and  _139
REMARK   55  A    between atoms: _139  and  _140
REMARK   56  A    between atoms: _139  and  _142
REMARK   57  A    between atoms: _142  and  _143
REMARK   58  A    between atoms: _148  and  _150
REMARK   59  A    between atoms: _150  and  _151
REMARK   60  A    between atoms: _150  and  _153
REMARK   61  A    between atoms: _153  and  _154
REMARK   62  A    between atoms: _157  and  _159
REMARK   63  A    between atoms: _159  and  _160
REMARK   64  A    between atoms: _159  and  _162
REMARK   65  A    between atoms: _162  and  _163
REMARK   66  A    between atoms: _173  and  _175
REMARK   67  A    between atoms: _175  and  _176
REMARK   68  A    between atoms: _175  and  _178
REMARK   69  A    between atoms: _181  and  _183
REMARK   70  A    between atoms: _183  and  _184
REMARK   71  A    between atoms: _183  and  _186
REMARK   72  A    between atoms: _186  and  _187
REMARK   73  A    between atoms: _187  and  _188
REMARK   74  A    between atoms: _191  and  _193
REMARK   75  A    between atoms: _193  and  _194
REMARK   76  A    between atoms: _193  and  _196
REMARK   77  A    between atoms: _196  and  _197
REMARK   78  A    between atoms: _197  and  _198
REMARK   79  A    between atoms: _201  and  _203
REMARK   80  A    between atoms: _203  and  _204
REMARK   81  A    between atoms: _203  and  _206
REMARK   82  A    between atoms: _206  and  _207
REMARK   83  A    between atoms: _209  and  _211
REMARK   84  A    between atoms: _211  and  _212
REMARK   85  A    between atoms: _211  and  _214
REMARK   86  A    between atoms: _217  and  _219
REMARK   87  A    between atoms: _219  and  _220
REMARK   88  A    between atoms: _219  and  _222
REMARK   89  A    between atoms: _222  and  _223
REMARK   90  A    between atoms: _228  and  _230
REMARK   91  A    between atoms: _230  and  _231
REMARK   92  A    between atoms: _233  and  _235
REMARK   93  A    between atoms: _235  and  _236
REMARK   94  A    between atoms: _235  and  _238
REMARK   95  A    between atoms: _238  and  _239
REMARK   96  A    between atoms: _243  and  _244
REMARK   97  A    between atoms: _249  and  _251
REMARK   98  A    between atoms: _251  and  _252
REMARK   99  A    between atoms: _251  and  _254
REMARK  100  A    between atoms: _254  and  _255
REMARK  101  A    between atoms: _260  and  _261
REMARK  102  A    between atoms: _263  and  _265
REMARK  103  A    between atoms: _265  and  _266
REMARK  104  A    between atoms: _265  and  _268
REMARK  105  A    between atoms: _268  and  _269
REMARK  106  A    between atoms: _275  and  _277
REMARK  107  A    between atoms: _277  and  _278
REMARK  108  A    between atoms: _277  and  _280
REMARK  109  A    between atoms: _280  and  _281
REMARK  110  A    between atoms: _286  and  _288
REMARK  111  A    between atoms: _288  and  _289
REMARK  112  A    between atoms: _288  and  _291
REMARK  113  A    between atoms: _291  and  _292
REMARK  114  A    between atoms: _297  and  _298
REMARK  115  A    between atoms: _300  and  _302
REMARK  116  A    between atoms: _302  and  _303
REMARK  117  A    between atoms: _305  and  _307
REMARK  118  A    between atoms: _307  and  _308
REMARK  119  A    between atoms: _307  and  _310
REMARK  120  A    between atoms: _310  and  _311
REMARK  121  A    between atoms: _314  and  _316
REMARK  122  A    between atoms: _316  and  _317
REMARK  123  A    between atoms: _316  and  _319
REMARK  124  A    between atoms: _319  and  _320
REMARK  125  A    between atoms: _325  and  _327
REMARK  126  A    between atoms: _327  and  _328
REMARK  127  A    between atoms: _331  and  _332
REMARK  128  A    between atoms: _337  and  _339
REMARK  129  A    between atoms: _339  and  _340
REMARK  130  A    between atoms: _339  and  _342
REMARK  131  A    between atoms: _342  and  _343
REMARK  132  A    between atoms: _353  and  _355
REMARK  133  A    between atoms: _355  and  _356
REMARK  134  A    between atoms: _359  and  _361
REMARK  135  A    between atoms: _361  and  _362
REMARK  136  A    between atoms: _361  and  _364
REMARK  137  A    between atoms: _364  and  _365
REMARK  138  A    between atoms: _371  and  _373
REMARK  139  A    between atoms: _373  and  _374
REMARK  140  A    between atoms: _373  and  _376
REMARK  141  A    between atoms: _376  and  _377
REMARK  142  A    between atoms: _380  and  _382
REMARK  143  A    between atoms: _382  and  _383
REMARK  144  A    between atoms: _385  and  _387
REMARK  145  A    between atoms: _387  and  _388
REMARK  146  A    between atoms: _387  and  _390
REMARK  147  A    between atoms: _393  and  _395
REMARK  148  A    between atoms: _395  and  _396
REMARK  149  A    between atoms: _395  and  _398
REMARK  150  A    between atoms: _398  and  _399
REMARK  151  A    between atoms: _399  and  _400
REMARK  152  A    between atoms: _405  and  _407
REMARK  153  A    between atoms: _407  and  _408
REMARK  154  A    between atoms: _407  and  _410
REMARK  155  A    between atoms: _410  and  _411
REMARK  156  A    between atoms: _417  and  _419
REMARK  157  A    between atoms: _419  and  _420
REMARK  158  A    between atoms: _419  and  _422
REMARK  159  A    between atoms: _422  and  _423
REMARK  160  A    between atoms: _423  and  _424
REMARK  161  A    between atoms: _424  and  _425
REMARK  162  A    between atoms: _434  and  _436
REMARK  163  A    between atoms: _436  and  _437
REMARK  164  A    between atoms: _436  and  _439
REMARK  165  A    between atoms: _439  and  _440
REMARK  166  A    between atoms: _440  and  _441
REMARK  167  A    between atoms: _444  and  _445
REMARK  168  A    between atoms: _450  and  _452
REMARK  169  A    between atoms: _452  and  _453
REMARK  170  A    between atoms: _452  and  _455
REMARK  171  A    between atoms: _455  and  _456
REMARK  172  A    between atoms: _456  and  _457
REMARK  173  A    between atoms: _459  and  _461
REMARK  174  A    between atoms: _461  and  _462
REMARK  175  A    between atoms: _464  and  _466
REMARK  176  A    between atoms: _466  and  _467
REMARK  177  A    between atoms: _466  and  _469
REMARK  178  A    between atoms: _472  and  _474
REMARK  179  A    between atoms: _474  and  _475
REMARK  180  A    between atoms: _474  and  _477
REMARK  181  A    between atoms: _477  and  _478
REMARK  182  A    between atoms: _488  and  _490
REMARK  183  A    between atoms: _490  and  _491
REMARK  184  A    between atoms: _493  and  _495
REMARK  185  A    between atoms: _495  and  _496
REMARK  186  A    between atoms: _495  and  _498
REMARK  187  A    between atoms: _498  and  _499
REMARK  188  A    between atoms: _509  and  _511
REMARK  189  A    between atoms: _511  and  _512
REMARK                            x       y       z     vdW  Elec       q    Type
REMARK                         _______ _______ _______ _____ _____    ______ ____
ROOT
ATOM      1  O   HOH     1      25.488   7.863  21.328  0.00  0.00    +0.000 OA
ENDROOT
TORSDOF 0
REMARK  Name = ../refined-set-2016/2gh9/2gh9_pocket.pdb
REMARK  189 active torsions:
REMARK  status: ('A' for Active; 'I' for Inactive)
REMARK    1  A    between atoms: _1  and  _3
REMARK    2  A    between atoms: _3  and  _4
REMARK    3  A    between atoms: _3  and  _6
REMARK    4  A    between atoms: _6  and  _7
REMARK    5  A    between atoms: _10  and  _12
REMARK    6  A    between atoms: _12  and  _13
REMARK    7  A    between atoms: _12  and  _15
REMARK    8  A    between atoms: _15  and  _16
REMARK    9  A    between atoms: _21  and  _23
REMARK   10  A    between atoms: _23  and  _24
REMARK   11  A    between atoms: _23  and  _26
REMARK   12  A    between atoms: _26  and  _27
REMARK   13  A    between atoms: _33  and  _35
REMARK   14  A    between atoms: _35  and  _36
REMARK   15  A    between atoms: _38  and  _40
REMARK   16  A    between atoms: _40  and  _41
REMARK   17  A    between atoms: _40  and  _43
REMARK   18  A    between atoms: _43  and  _44
REMARK   19  A    between atoms: _44  and  _45
REMARK   20  A    between atoms: _48  and  _50
REMARK   21  A    between atoms: _50  and  _51
REMARK   22  A    between atoms: _50  and  _53
REMARK   23  A    between atoms: _57  and  _58
REMARK   24  A    between atoms: _63  and  _65
REMARK   25  A    between atoms: _65  and  _66
REMARK   26  A    between atoms: _65  and  _68
REMARK   27  A    between atoms: _68  and  _69
REMARK   28  A    between atoms: _75  and  _77
REMARK   29  A    between atoms: _77  and  _78
REMARK   30  A    between atoms: _81  and  _83
REMARK   31  A    between atoms: _83  and  _84
REMARK   32  A    between atoms: _83  and  _86
REMARK   33  A    between atoms: _86  and  _87
REMARK   34  A    between atoms: _87  and  _88
REMARK   35  A    between atoms: _91  and  _93
REMARK   36  A    between atoms: _93  and  _94
REMARK   37  A    between atoms: _93  and  _96
REMARK   38  A    between atoms: _96  and  _97
REMARK   39  A    between atoms: _100  and  _102
REMARK   40  A    between atoms: _102  and  _103
REMARK   41  A    between atoms: _102  and  _105
REMARK   42  A    between atoms: _105  and  _106
REMARK   43  A    between atoms: _106  and  _107
REMARK   44  A    between atoms: _107  and  _108
REMARK   45  A    between atoms: _108  and  _109
REMARK   46  A    between atoms: _113  and  _115
REMARK   47  A    between atoms: _115  and  _116
REMARK   48  A    between atoms: _115  and  _118
REMARK   49  A    between atoms: _118  and  _119
REMARK   50  A    between atoms: _122  and  _124
REMARK   51  A    between atoms: _124  and  _125
REMARK   52  A    between atoms: _124  and  _127
REMARK   53  A    between atoms: _131  and  _132
REMARK   54  A    between atoms: _137  and  _139
REMARK   55  A    between atoms: _139  and  _140
REMARK   56  A    between atoms: _139  and  _142
REMARK   57  A    between atoms: _142  and  _143
REMARK   58  A    between atoms: _148  and  _150
REMARK   59  A    between atoms: _150  and  _151
REMARK   60  A    between atoms: _150  and  _153
REMARK   61  A    between atoms: _153  and  _154
REMARK   62  A    between atoms: _157  and  _159
REMARK   63  A    between atoms: _159  and  _160
REMARK   64  A    between atoms: _159  and  _162
REMARK   65  A    between atoms: _162  and  _163
REMARK   66  A    between atoms: _173  and  _175
REMARK   67  A    between atoms: _175  and  _176
REMARK   68  A    between atoms: _175  and  _178
REMARK   69  A    between atoms: _181  and  _183
REMARK   70  A    between atoms: _183  and  _184
REMARK   71  A    between atoms: _183  and  _186
REMARK   72  A    between atoms: _186  and  _187
REMARK   73  A    between atoms: _187  and  _188
REMARK   74  A    between atoms: _191  and  _193
REMARK   75  A    between atoms: _193  and  _194
REMARK   76  A    between atoms: _193  and  _196
REMARK   77  A    between atoms: _196  and  _197
REMARK   78  A    between atoms: _197  and  _198
REMARK   79  A    between atoms: _201  and  _203
REMARK   80  A    between atoms: _203  and  _204
REMARK   81  A    between atoms: _203  and  _206
REMARK   82  A    between atoms: _206  and  _207
REMARK   83  A    between atoms: _209  and  _211
REMARK   84  A    between atoms: _211  and  _212
REMARK   85  A    between atoms: _211  and  _214
REMARK   86  A    between atoms: _217  and  _219
REMARK   87  A    between atoms: _219  and  _220
REMARK   88  A    between atoms: _219  and  _222
REMARK   89  A    between atoms: _222  and  _223
REMARK   90  A    between atoms: _228  and  _230
REMARK   91  A    between atoms: _230  and  _231
REMARK   92  A    between atoms: _233  and  _235
REMARK   93  A    between atoms: _235  and  _236
REMARK   94  A    between atoms: _235  and  _238
REMARK   95  A    between atoms: _238  and  _239
REMARK   96  A    between atoms: _243  and  _244
REMARK   97  A    between atoms: _249  and  _251
REMARK   98  A    between atoms: _251  and  _252
REMARK   99  A    between atoms: _251  and  _254
REMARK  100  A    between atoms: _254  and  _255
REMARK  101  A    between atoms: _260  and  _261
REMARK  102  A    between atoms: _263  and  _265
REMARK  103  A    between atoms: _265  and  _266
REMARK  104  A    between atoms: _265  and  _268
REMARK  105  A    between atoms: _268  and  _269
REMARK  106  A    between atoms: _275  and  _277
REMARK  107  A    between atoms: _277  and  _278
REMARK  108  A    between atoms: _277  and  _280
REMARK  109  A    between atoms: _280  and  _281
REMARK  110  A    between atoms: _286  and  _288
REMARK  111  A    between atoms: _288  and  _289
REMARK  112  A    between atoms: _288  and  _291
REMARK  113  A    between atoms: _291  and  _292
REMARK  114  A    between atoms: _297  and  _298
REMARK  115  A    between atoms: _300  and  _302
REMARK  116  A    between atoms: _302  and  _303
REMARK  117  A    between atoms: _305  and  _307
REMARK  118  A    between atoms: _307  and  _308
REMARK  119  A    between atoms: _307  and  _310
REMARK  120  A    between atoms: _310  and  _311
REMARK  121  A    between atoms: _314  and  _316
REMARK  122  A    between atoms: _316  and  _317
REMARK  123  A    between atoms: _316  and  _319
REMARK  124  A    between atoms: _319  and  _320
REMARK  125  A    between atoms: _325  and  _327
REMARK  126  A    between atoms: _327  and  _328
REMARK  127  A    between atoms: _331  and  _332
REMARK  128  A    between atoms: _337  and  _339
REMARK  129  A    between atoms: _339  and  _340
REMARK  130  A    between atoms: _339  and  _342
REMARK  131  A    between atoms: _342  and  _343
REMARK  132  A    between atoms: _353  and  _355
REMARK  133  A    between atoms: _355  and  _356
REMARK  134  A    between atoms: _359  and  _361
REMARK  135  A    between atoms: _361  and  _362
REMARK  136  A    between atoms: _361  and  _364
REMARK  137  A    between atoms: _364  and  _365
REMARK  138  A    between atoms: _371  and  _373
REMARK  139  A    between atoms: _373  and  _374
REMARK  140  A    between atoms: _373  and  _376
REMARK  141  A    between atoms: _376  and  _377
REMARK  142  A    between atoms: _380  and  _382
REMARK  143  A    between atoms: _382  and  _383
REMARK  144  A    between atoms: _385  and  _387
REMARK  145  A    between atoms: _387  and  _388
REMARK  146  A    between atoms: _387  and  _390
REMARK  147  A    between atoms: _393  and  _395
REMARK  148  A    between atoms: _395  and  _396
REMARK  149  A    between atoms: _395  and  _398
REMARK  150  A    between atoms: _398  and  _399
REMARK  151  A    between atoms: _399  and  _400
REMARK  152  A    between atoms: _405  and  _407
REMARK  153  A    between atoms: _407  and  _408
REMARK  154  A    between atoms: _407  and  _410
REMARK  155  A    between atoms: _410  and  _411
REMARK  156  A    between atoms: _417  and  _419
REMARK  157  A    between atoms: _419  and  _420
REMARK  158  A    between atoms: _419  and  _422
REMARK  159  A    between atoms: _422  and  _423
REMARK  160  A    between atoms: _423  and  _424
REMARK  161  A    between atoms: _424  and  _425
REMARK  162  A    between atoms: _434  and  _436
REMARK  163  A    between atoms: _436  and  _437
REMARK  164  A    between atoms: _436  and  _439
REMARK  165  A    between atoms: _439  and  _440
REMARK  166  A    between atoms: _440  and  _441
REMARK  167  A    between atoms: _444  and  _445
REMARK  168  A    between atoms: _450  and  _452
REMARK  169  A    between atoms: _452  and  _453
REMARK  170  A    between atoms: _452  and  _455
REMARK  171  A    between atoms: _455  and  _456
REMARK  172  A    between atoms: _456  and  _457
REMARK  173  A    between atoms: _459  and  _461
REMARK  174  A    between atoms: _461  and  _462
REMARK  175  A    between atoms: _464  and  _466
REMARK  176  A    between atoms: _466  and  _467
REMARK  177  A    between atoms: _466  and  _469
REMARK  178  A    between atoms: _472  and  _474
REMARK  179  A    between atoms: _474  and  _475
REMARK  180  A    between atoms: _474  and  _477
REMARK  181  A    between atoms: _477  and  _478
REMARK  182  A    between atoms: _488  and  _490
REMARK  183  A    between atoms: _490  and  _491
REMARK  184  A    between atoms: _493  and  _495
REMARK  185  A    between atoms: _495  and  _496
REMARK  186  A    between atoms: _495  and  _498
REMARK  187  A    between atoms: _498  and  _499
REMARK  188  A    between atoms: _509  and  _511
REMARK  189  A    between atoms: _511  and  _512
REMARK                            x       y       z     vdW  Elec       q    Type
REMARK                         _______ _______ _______ _____ _____    ______ ____
ROOT
ATOM      1  O   HOH     1      19.108  21.179  27.752  0.00  0.00    +0.000 OA
ENDROOT
TORSDOF 0
REMARK  Name = ../refined-set-2016/2gh9/2gh9_pocket.pdb
REMARK  189 active torsions:
REMARK  status: ('A' for Active; 'I' for Inactive)
REMARK    1  A    between atoms: _1  and  _3
REMARK    2  A    between atoms: _3  and  _4
REMARK    3  A    between atoms: _3  and  _6
REMARK    4  A    between atoms: _6  and  _7
REMARK    5  A    between atoms: _10  and  _12
REMARK    6  A    between atoms: _12  and  _13
REMARK    7  A    between atoms: _12  and  _15
REMARK    8  A    between atoms: _15  and  _16
REMARK    9  A    between atoms: _21  and  _23
REMARK   10  A    between atoms: _23  and  _24
REMARK   11  A    between atoms: _23  and  _26
REMARK   12  A    between atoms: _26  and  _27
REMARK   13  A    between atoms: _33  and  _35
REMARK   14  A    between atoms: _35  and  _36
REMARK   15  A    between atoms: _38  and  _40
REMARK   16  A    between atoms: _40  and  _41
REMARK   17  A    between atoms: _40  and  _43
REMARK   18  A    between atoms: _43  and  _44
REMARK   19  A    between atoms: _44  and  _45
REMARK   20  A    between atoms: _48  and  _50
REMARK   21  A    between atoms: _50  and  _51
REMARK   22  A    between atoms: _50  and  _53
REMARK   23  A    between atoms: _57  and  _58
REMARK   24  A    between atoms: _63  and  _65
REMARK   25  A    between atoms: _65  and  _66
REMARK   26  A    between atoms: _65  and  _68
REMARK   27  A    between atoms: _68  and  _69
REMARK   28  A    between atoms: _75  and  _77
REMARK   29  A    between atoms: _77  and  _78
REMARK   30  A    between atoms: _81  and  _83
REMARK   31  A    between atoms: _83  and  _84
REMARK   32  A    between atoms: _83  and  _86
REMARK   33  A    between atoms: _86  and  _87
REMARK   34  A    between atoms: _87  and  _88
REMARK   35  A    between atoms: _91  and  _93
REMARK   36  A    between atoms: _93  and  _94
REMARK   37  A    between atoms: _93  and  _96
REMARK   38  A    between atoms: _96  and  _97
REMARK   39  A    between atoms: _100  and  _102
REMARK   40  A    between atoms: _102  and  _103
REMARK   41  A    between atoms: _102  and  _105
REMARK   42  A    between atoms: _105  and  _106
REMARK   43  A    between atoms: _106  and  _107
REMARK   44  A    between atoms: _107  and  _108
REMARK   45  A    between atoms: _108  and  _109
REMARK   46  A    between atoms: _113  and  _115
REMARK   47  A    between atoms: _115  and  _116
REMARK   48  A    between atoms: _115  and  _118
REMARK   49  A    between atoms: _118  and  _119
REMARK   50  A    between atoms: _122  and  _124
REMARK   51  A    between atoms: _124  and  _125
REMARK   52  A    between atoms: _124  and  _127
REMARK   53  A    between atoms: _131  and  _132
REMARK   54  A    between atoms: _137  and  _139
REMARK   55  A    between atoms: _139  and  _140
REMARK   56  A    between atoms: _139  and  _142
REMARK   57  A    between atoms: _142  and  _143
REMARK   58  A    between atoms: _148  and  _150
REMARK   59  A    between atoms: _150  and  _151
REMARK   60  A    between atoms: _150  and  _153
REMARK   61  A    between atoms: _153  and  _154
REMARK   62  A    between atoms: _157  and  _159
REMARK   63  A    between atoms: _159  and  _160
REMARK   64  A    between atoms: _159  and  _162
REMARK   65  A    between atoms: _162  and  _163
REMARK   66  A    between atoms: _173  and  _175
REMARK   67  A    between atoms: _175  and  _176
REMARK   68  A    between atoms: _175  and  _178
REMARK   69  A    between atoms: _181  and  _183
REMARK   70  A    between atoms: _183  and  _184
REMARK   71  A    between atoms: _183  and  _186
REMARK   72  A    between atoms: _186  and  _187
REMARK   73  A    between atoms: _187  and  _188
REMARK   74  A    between atoms: _191  and  _193
REMARK   75  A    between atoms: _193  and  _194
REMARK   76  A    between atoms: _193  and  _196
REMARK   77  A    between atoms: _196  and  _197
REMARK   78  A    between atoms: _197  and  _198
REMARK   79  A    between atoms: _201  and  _203
REMARK   80  A    between atoms: _203  and  _204
REMARK   81  A    between atoms: _203  and  _206
REMARK   82  A    between atoms: _206  and  _207
REMARK   83  A    between atoms: _209  and  _211
REMARK   84  A    between atoms: _211  and  _212
REMARK   85  A    between atoms: _211  and  _214
REMARK   86  A    between atoms: _217  and  _219
REMARK   87  A    between atoms: _219  and  _220
REMARK   88  A    between atoms: _219  and  _222
REMARK   89  A    between atoms: _222  and  _223
REMARK   90  A    between atoms: _228  and  _230
REMARK   91  A    between atoms: _230  and  _231
REMARK   92  A    between atoms: _233  and  _235
REMARK   93  A    between atoms: _235  and  _236
REMARK   94  A    between atoms: _235  and  _238
REMARK   95  A    between atoms: _238  and  _239
REMARK   96  A    between atoms: _243  and  _244
REMARK   97  A    between atoms: _249  and  _251
REMARK   98  A    between atoms: _251  and  _252
REMARK   99  A    between atoms: _251  and  _254
REMARK  100  A    between atoms: _254  and  _255
REMARK  101  A    between atoms: _260  and  _261
REMARK  102  A    between atoms: _263  and  _265
REMARK  103  A    between atoms: _265  and  _266
REMARK  104  A    between atoms: _265  and  _268
REMARK  105  A    between atoms: _268  and  _269
REMARK  106  A    between atoms: _275  and  _277
REMARK  107  A    between atoms: _277  and  _278
REMARK  108  A    between atoms: _277  and  _280
REMARK  109  A    between atoms: _280  and  _281
REMARK  110  A    between atoms: _286  and  _288
REMARK  111  A    between atoms: _288  and  _289
REMARK  112  A    between atoms: _288  and  _291
REMARK  113  A    between atoms: _291  and  _292
REMARK  114  A    between atoms: _297  and  _298
REMARK  115  A    between atoms: _300  and  _302
REMARK  116  A    between atoms: _302  and  _303
REMARK  117  A    between atoms: _305  and  _307
REMARK  118  A    between atoms: _307  and  _308
REMARK  119  A    between atoms: _307  and  _310
REMARK  120  A    between atoms: _310  and  _311
REMARK  121  A    between atoms: _314  and  _316
REMARK  122  A    between atoms: _316  and  _317
REMARK  123  A    between atoms: _316  and  _319
REMARK  124  A    between atoms: _319  and  _320
REMARK  125  A    between atoms: _325  and  _327
REMARK  126  A    between atoms: _327  and  _328
REMARK  127  A    between atoms: _331  and  _332
REMARK  128  A    between atoms: _337  and  _339
REMARK  129  A    between atoms: _339  and  _340
REMARK  130  A    between atoms: _339  and  _342
REMARK  131  A    between atoms: _342  and  _343
REMARK  132  A    between atoms: _353  and  _355
REMARK  133  A    between atoms: _355  and  _356
REMARK  134  A    between atoms: _359  and  _361
REMARK  135  A    between atoms: _361  and  _362
REMARK  136  A    between atoms: _361  and  _364
REMARK  137  A    between atoms: _364  and  _365
REMARK  138  A    between atoms: _371  and  _373
REMARK  139  A    between atoms: _373  and  _374
REMARK  140  A    between atoms: _373  and  _376
REMARK  141  A    between atoms: _376  and  _377
REMARK  142  A    between atoms: _380  and  _382
REMARK  143  A    between atoms: _382  and  _383
REMARK  144  A    between atoms: _385  and  _387
REMARK  145  A    between atoms: _387  and  _388
REMARK  146  A    between atoms: _387  and  _390
REMARK  147  A    between atoms: _393  and  _395
REMARK  148  A    between atoms: _395  and  _396
REMARK  149  A    between atoms: _395  and  _398
REMARK  150  A    between atoms: _398  and  _399
REMARK  151  A    between atoms: _399  and  _400
REMARK  152  A    between atoms: _405  and  _407
REMARK  153  A    between atoms: _407  and  _408
REMARK  154  A    between atoms: _407  and  _410
REMARK  155  A    between atoms: _410  and  _411
REMARK  156  A    between atoms: _417  and  _419
REMARK  157  A    between atoms: _419  and  _420
REMARK  158  A    between atoms: _419  and  _422
REMARK  159  A    between atoms: _422  and  _423
REMARK  160  A    between atoms: _423  and  _424
REMARK  161  A    between atoms: _424  and  _425
REMARK  162  A    between atoms: _434  and  _436
REMARK  163  A    between atoms: _436  and  _437
REMARK  164  A    between atoms: _436  and  _439
REMARK  165  A    between atoms: _439  and  _440
REMARK  166  A    between atoms: _440  and  _441
REMARK  167  A    between atoms: _444  and  _445
REMARK  168  A    between atoms: _450  and  _452
REMARK  169  A    between atoms: _452  and  _453
REMARK  170  A    between atoms: _452  and  _455
REMARK  171  A    between atoms: _455  and  _456
REMARK  172  A    between atoms: _456  and  _457
REMARK  173  A    between atoms: _459  and  _461
REMARK  174  A    between atoms: _461  and  _462
REMARK  175  A    between atoms: _464  and  _466
REMARK  176  A    between atoms: _466  and  _467
REMARK  177  A    between atoms: _466  and  _469
REMARK  178  A    between atoms: _472  and  _474
REMARK  179  A    between atoms: _474  and  _475
REMARK  180  A    between atoms: _474  and  _477
REMARK  181  A    between atoms: _477  and  _478
REMARK  182  A    between atoms: _488  and  _490
REMARK  183  A    between atoms: _490  and  _491
REMARK  184  A    between atoms: _493  and  _495
REMARK  185  A    between atoms: _495  and  _496
REMARK  186  A    between atoms: _495  and  _498
REMARK  187  A    between atoms: _498  and  _499
REMARK  188  A    between atoms: _509  and  _511
REMARK  189  A    between atoms: _511  and  _512
REMARK                            x       y       z     vdW  Elec       q    Type
REMARK                         _______ _______ _______ _____ _____    ______ ____
ROOT
ATOM      1  O   HOH     1      24.449  21.360  16.542  0.00  0.00    +0.000 OA
ENDROOT
TORSDOF 0
