REMARK  Name = ../refined-set-2016/2f80/2f80_pocket.pdb
REMARK  235 active torsions:
REMARK  status: ('A' for Active; 'I' for Inactive)
REMARK    1  A    between atoms: _1  and  _3
REMARK    2  A    between atoms: _3  and  _4
REMARK    3  A    between atoms: _3  and  _6
REMARK    4  A    between atoms: _6  and  _7
REMARK    5  A    between atoms: _7  and  _8
REMARK    6  A    between atoms: _8  and  _9
REMARK    7  A    between atoms: _18  and  _20
REMARK    8  A    between atoms: _20  and  _21
REMARK    9  A    between atoms: _20  and  _23
REMARK   10  A    between atoms: _23  and  _24
REMARK   11  A    between atoms: _27  and  _29
REMARK   12  A    between atoms: _29  and  _30
REMARK   13  A    between atoms: _29  and  _32
REMARK   14  A    between atoms: _32  and  _33
REMARK   15  A    between atoms: _36  and  _38
REMARK   16  A    between atoms: _38  and  _39
REMARK   17  A    between atoms: _38  and  _41
REMARK   18  A    between atoms: _41  and  _42
REMARK   19  A    between atoms: _45  and  _47
REMARK   20  A    between atoms: _47  and  _48
REMARK   21  A    between atoms: _47  and  _50
REMARK   22  A    between atoms: _50  and  _51
REMARK   23  A    between atoms: _54  and  _56
REMARK   24  A    between atoms: _56  and  _57
REMARK   25  A    between atoms: _59  and  _61
REMARK   26  A    between atoms: _61  and  _62
REMARK   27  A    between atoms: _65  and  _67
REMARK   28  A    between atoms: _67  and  _68
REMARK   29  A    between atoms: _67  and  _70
REMARK   30  A    between atoms: _70  and  _71
REMARK   31  A    between atoms: _74  and  _76
REMARK   32  A    between atoms: _76  and  _77
REMARK   33  A    between atoms: _76  and  _79
REMARK   34  A    between atoms: _79  and  _80
REMARK   35  A    between atoms: _85  and  _87
REMARK   36  A    between atoms: _87  and  _88
REMARK   37  A    between atoms: _87  and  _90
REMARK   38  A    between atoms: _90  and  _91
REMARK   39  A    between atoms: _94  and  _96
REMARK   40  A    between atoms: _96  and  _97
REMARK   41  A    between atoms: _96  and  _99
REMARK   42  A    between atoms: _102  and  _104
REMARK   43  A    between atoms: _104  and  _105
REMARK   44  A    between atoms: _104  and  _107
REMARK   45  A    between atoms: _107  and  _108
REMARK   46  A    between atoms: _111  and  _113
REMARK   47  A    between atoms: _113  and  _114
REMARK   48  A    between atoms: _113  and  _116
REMARK   49  A    between atoms: _117  and  _118
REMARK   50  A    between atoms: _118  and  _119
REMARK   51  A    between atoms: _119  and  _120
REMARK   52  A    between atoms: _124  and  _126
REMARK   53  A    between atoms: _126  and  _127
REMARK   54  A    between atoms: _126  and  _129
REMARK   55  A    between atoms: _129  and  _130
REMARK   56  A    between atoms: _130  and  _131
REMARK   57  A    between atoms: _133  and  _135
REMARK   58  A    between atoms: _135  and  _136
REMARK   59  A    between atoms: _135  and  _138
REMARK   60  A    between atoms: _138  and  _139
REMARK   61  A    between atoms: _142  and  _144
REMARK   62  A    between atoms: _144  and  _145
REMARK   63  A    between atoms: _147  and  _149
REMARK   64  A    between atoms: _149  and  _150
REMARK   65  A    between atoms: _152  and  _154
REMARK   66  A    between atoms: _154  and  _155
REMARK   67  A    between atoms: _154  and  _157
REMARK   68  A    between atoms: _157  and  _158
REMARK   69  A    between atoms: _161  and  _163
REMARK   70  A    between atoms: _163  and  _164
REMARK   71  A    between atoms: _166  and  _168
REMARK   72  A    between atoms: _168  and  _169
REMARK   73  A    between atoms: _171  and  _173
REMARK   74  A    between atoms: _173  and  _174
REMARK   75  A    between atoms: _173  and  _176
REMARK   76  A    between atoms: _176  and  _177
REMARK   77  A    between atoms: _183  and  _185
REMARK   78  A    between atoms: _185  and  _186
REMARK   79  A    between atoms: _185  and  _188
REMARK   80  A    between atoms: _188  and  _189
REMARK   81  A    between atoms: _192  and  _194
REMARK   82  A    between atoms: _194  and  _195
REMARK   83  A    between atoms: _194  and  _197
REMARK   84  A    between atoms: _200  and  _202
REMARK   85  A    between atoms: _202  and  _203
REMARK   86  A    between atoms: _202  and  _205
REMARK   87  A    between atoms: _205  and  _206
REMARK   88  A    between atoms: _209  and  _211
REMARK   89  A    between atoms: _211  and  _212
REMARK   90  A    between atoms: _211  and  _214
REMARK   91  A    between atoms: _214  and  _215
REMARK   92  A    between atoms: _219  and  _220
REMARK   93  A    between atoms: _225  and  _227
REMARK   94  A    between atoms: _227  and  _228
REMARK   95  A    between atoms: _227  and  _230
REMARK   96  A    between atoms: _233  and  _235
REMARK   97  A    between atoms: _235  and  _236
REMARK   98  A    between atoms: _235  and  _238
REMARK   99  A    between atoms: _238  and  _239
REMARK  100  A    between atoms: _244  and  _246
REMARK  101  A    between atoms: _246  and  _247
REMARK  102  A    between atoms: _246  and  _249
REMARK  103  A    between atoms: _249  and  _250
REMARK  104  A    between atoms: _253  and  _255
REMARK  105  A    between atoms: _255  and  _256
REMARK  106  A    between atoms: _255  and  _258
REMARK  107  A    between atoms: _258  and  _259
REMARK  108  A    between atoms: _262  and  _264
REMARK  109  A    between atoms: _264  and  _265
REMARK  110  A    between atoms: _267  and  _269
REMARK  111  A    between atoms: _269  and  _270
REMARK  112  A    between atoms: _269  and  _272
REMARK  113  A    between atoms: _272  and  _273
REMARK  114  A    between atoms: _273  and  _274
REMARK  115  A    between atoms: _274  and  _275
REMARK  116  A    between atoms: _284  and  _286
REMARK  117  A    between atoms: _286  and  _287
REMARK  118  A    between atoms: _286  and  _289
REMARK  119  A    between atoms: _289  and  _290
REMARK  120  A    between atoms: _295  and  _297
REMARK  121  A    between atoms: _297  and  _298
REMARK  122  A    between atoms: _297  and  _300
REMARK  123  A    between atoms: _300  and  _301
REMARK  124  A    between atoms: _301  and  _302
REMARK  125  A    between atoms: _302  and  _303
REMARK  126  A    between atoms: _312  and  _314
REMARK  127  A    between atoms: _314  and  _315
REMARK  128  A    between atoms: _314  and  _317
REMARK  129  A    between atoms: _317  and  _318
REMARK  130  A    between atoms: _321  and  _323
REMARK  131  A    between atoms: _323  and  _324
REMARK  132  A    between atoms: _323  and  _326
REMARK  133  A    between atoms: _326  and  _327
REMARK  134  A    between atoms: _330  and  _332
REMARK  135  A    between atoms: _332  and  _333
REMARK  136  A    between atoms: _332  and  _335
REMARK  137  A    between atoms: _335  and  _336
REMARK  138  A    between atoms: _339  and  _341
REMARK  139  A    between atoms: _341  and  _342
REMARK  140  A    between atoms: _341  and  _344
REMARK  141  A    between atoms: _344  and  _345
REMARK  142  A    between atoms: _348  and  _350
REMARK  143  A    between atoms: _350  and  _351
REMARK  144  A    between atoms: _353  and  _355
REMARK  145  A    between atoms: _355  and  _356
REMARK  146  A    between atoms: _359  and  _361
REMARK  147  A    between atoms: _361  and  _362
REMARK  148  A    between atoms: _361  and  _364
REMARK  149  A    between atoms: _364  and  _365
REMARK  150  A    between atoms: _368  and  _370
REMARK  151  A    between atoms: _370  and  _371
REMARK  152  A    between atoms: _370  and  _373
REMARK  153  A    between atoms: _373  and  _374
REMARK  154  A    between atoms: _379  and  _381
REMARK  155  A    between atoms: _381  and  _382
REMARK  156  A    between atoms: _381  and  _384
REMARK  157  A    between atoms: _384  and  _385
REMARK  158  A    between atoms: _388  and  _390
REMARK  159  A    between atoms: _390  and  _391
REMARK  160  A    between atoms: _390  and  _393
REMARK  161  A    between atoms: _396  and  _398
REMARK  162  A    between atoms: _398  and  _399
REMARK  163  A    between atoms: _398  and  _401
REMARK  164  A    between atoms: _401  and  _402
REMARK  165  A    between atoms: _402  and  _403
REMARK  166  A    between atoms: _403  and  _404
REMARK  167  A    between atoms: _404  and  _405
REMARK  168  A    between atoms: _409  and  _411
REMARK  169  A    between atoms: _411  and  _412
REMARK  170  A    between atoms: _411  and  _414
REMARK  171  A    between atoms: _414  and  _415
REMARK  172  A    between atoms: _415  and  _416
REMARK  173  A    between atoms: _418  and  _420
REMARK  174  A    between atoms: _420  and  _421
REMARK  175  A    between atoms: _420  and  _423
REMARK  176  A    between atoms: _423  and  _424
REMARK  177  A    between atoms: _427  and  _429
REMARK  178  A    between atoms: _429  and  _430
REMARK  179  A    between atoms: _432  and  _434
REMARK  180  A    between atoms: _434  and  _435
REMARK  181  A    between atoms: _437  and  _439
REMARK  182  A    between atoms: _439  and  _440
REMARK  183  A    between atoms: _439  and  _442
REMARK  184  A    between atoms: _442  and  _443
REMARK  185  A    between atoms: _446  and  _448
REMARK  186  A    between atoms: _448  and  _449
REMARK  187  A    between atoms: _451  and  _453
REMARK  188  A    between atoms: _453  and  _454
REMARK  189  A    between atoms: _456  and  _458
REMARK  190  A    between atoms: _458  and  _459
REMARK  191  A    between atoms: _458  and  _461
REMARK  192  A    between atoms: _461  and  _462
REMARK  193  A    between atoms: _468  and  _470
REMARK  194  A    between atoms: _470  and  _471
REMARK  195  A    between atoms: _470  and  _473
REMARK  196  A    between atoms: _473  and  _474
REMARK  197  A    between atoms: _477  and  _479
REMARK  198  A    between atoms: _479  and  _480
REMARK  199  A    between atoms: _479  and  _482
REMARK  200  A    between atoms: _485  and  _487
REMARK  201  A    between atoms: _487  and  _488
REMARK  202  A    between atoms: _487  and  _490
REMARK  203  A    between atoms: _490  and  _491
REMARK  204  A    between atoms: _494  and  _496
REMARK  205  A    between atoms: _496  and  _497
REMARK  206  A    between atoms: _496  and  _499
REMARK  207  A    between atoms: _499  and  _500
REMARK  208  A    between atoms: _504  and  _505
REMARK  209  A    between atoms: _510  and  _512
REMARK  210  A    between atoms: _512  and  _513
REMARK  211  A    between atoms: _512  and  _515
REMARK  212  A    between atoms: _518  and  _520
REMARK  213  A    between atoms: _520  and  _521
REMARK  214  A    between atoms: _520  and  _523
REMARK  215  A    between atoms: _523  and  _524
REMARK  216  A    between atoms: _529  and  _531
REMARK  217  A    between atoms: _531  and  _532
REMARK  218  A    between atoms: _531  and  _534
REMARK  219  A    between atoms: _534  and  _535
REMARK  220  A    between atoms: _538  and  _540
REMARK  221  A    between atoms: _540  and  _541
REMARK  222  A    between atoms: _540  and  _543
REMARK  223  A    between atoms: _543  and  _544
REMARK  224  A    between atoms: _547  and  _549
REMARK  225  A    between atoms: _549  and  _550
REMARK  226  A    between atoms: _552  and  _554
REMARK  227  A    between atoms: _554  and  _555
REMARK  228  A    between atoms: _554  and  _557
REMARK  229  A    between atoms: _557  and  _558
REMARK  230  A    between atoms: _558  and  _559
REMARK  231  A    between atoms: _559  and  _560
REMARK  232  A    between atoms: _569  and  _571
REMARK  233  A    between atoms: _571  and  _572
REMARK  234  A    between atoms: _571  and  _574
REMARK  235  A    between atoms: _574  and  _575
REMARK                            x       y       z     vdW  Elec       q    Type
REMARK                         _______ _______ _______ _____ _____    ______ ____
ROOT
ATOM      1  NE  ARG A   1       6.177  20.638  14.933  0.00  0.00    -0.265 N 
ATOM      2  HE  ARG A   1       5.746  20.064  15.686  0.00  0.00    +0.259 HD
ATOM      3  CZ  ARG A   1       7.297  20.174  14.364  0.00  0.00    +0.342 C 
ATOM      4  NH2 ARG A   1       7.724  18.992  14.828  0.00  0.00    -0.292 N 
ATOM      5 HH21 ARG A   1       7.192  18.505  15.577  0.00  0.00    +0.255 HD
ATOM      6 HH22 ARG A   1       8.587  18.562  14.439  0.00  0.00    +0.255 HD
ATOM      7  NH1 ARG A   1       7.994  20.802  13.392  0.00  0.00    -0.292 N 
ATOM      8 HH11 ARG A   1       7.668  21.721  13.029  0.00  0.00    +0.255 HD
ATOM      9 HH12 ARG A   1       8.856  20.367  13.006  0.00  0.00    +0.255 HD
ENDROOT
BRANCH   1  10
ATOM     10  CD  ARG A   1       5.523  21.875  14.579  0.00  0.00    +0.174 C 
BRANCH  10  11
ATOM     11  CG  ARG A   1       4.980  22.614  15.763  0.00  0.00    +0.045 C 
BRANCH  11  12
ATOM     12  CB  ARG A   1       4.462  23.990  15.415  0.00  0.00    +0.029 C 
BRANCH  12  13
ATOM     13  CA  ARG A   1       3.878  24.705  16.631  0.00  0.00    +0.133 C 
BRANCH  13  14
ATOM     14  N   ARG A   1       2.669  24.081  17.124  0.00  0.00    -0.239 NA
ATOM     15  H   ARG A   1       2.330  23.204  16.679  0.00  0.00    +0.142 HD
ENDBRANCH  13  14
BRANCH  13  16
ATOM     16  C   ARG A   1       3.576  26.128  16.175  0.00  0.00    +0.224 C 
ATOM     17  O   ARG A   1       2.615  26.257  15.437  0.00  0.00    -0.287 OA
ENDBRANCH  13  16
ENDBRANCH  12  13
ENDBRANCH  11  12
ENDBRANCH  10  11
ENDBRANCH   1  10
TORSDOF 6
REMARK  Name = ../refined-set-2016/2f80/2f80_pocket.pdb
REMARK  235 active torsions:
REMARK  status: ('A' for Active; 'I' for Inactive)
REMARK    1  A    between atoms: _1  and  _3
REMARK    2  A    between atoms: _3  and  _4
REMARK    3  A    between atoms: _3  and  _6
REMARK    4  A    between atoms: _6  and  _7
REMARK    5  A    between atoms: _7  and  _8
REMARK    6  A    between atoms: _8  and  _9
REMARK    7  A    between atoms: _18  and  _20
REMARK    8  A    between atoms: _20  and  _21
REMARK    9  A    between atoms: _20  and  _23
REMARK   10  A    between atoms: _23  and  _24
REMARK   11  A    between atoms: _27  and  _29
REMARK   12  A    between atoms: _29  and  _30
REMARK   13  A    between atoms: _29  and  _32
REMARK   14  A    between atoms: _32  and  _33
REMARK   15  A    between atoms: _36  and  _38
REMARK   16  A    between atoms: _38  and  _39
REMARK   17  A    between atoms: _38  and  _41
REMARK   18  A    between atoms: _41  and  _42
REMARK   19  A    between atoms: _45  and  _47
REMARK   20  A    between atoms: _47  and  _48
REMARK   21  A    between atoms: _47  and  _50
REMARK   22  A    between atoms: _50  and  _51
REMARK   23  A    between atoms: _54  and  _56
REMARK   24  A    between atoms: _56  and  _57
REMARK   25  A    between atoms: _59  and  _61
REMARK   26  A    between atoms: _61  and  _62
REMARK   27  A    between atoms: _65  and  _67
REMARK   28  A    between atoms: _67  and  _68
REMARK   29  A    between atoms: _67  and  _70
REMARK   30  A    between atoms: _70  and  _71
REMARK   31  A    between atoms: _74  and  _76
REMARK   32  A    between atoms: _76  and  _77
REMARK   33  A    between atoms: _76  and  _79
REMARK   34  A    between atoms: _79  and  _80
REMARK   35  A    between atoms: _85  and  _87
REMARK   36  A    between atoms: _87  and  _88
REMARK   37  A    between atoms: _87  and  _90
REMARK   38  A    between atoms: _90  and  _91
REMARK   39  A    between atoms: _94  and  _96
REMARK   40  A    between atoms: _96  and  _97
REMARK   41  A    between atoms: _96  and  _99
REMARK   42  A    between atoms: _102  and  _104
REMARK   43  A    between atoms: _104  and  _105
REMARK   44  A    between atoms: _104  and  _107
REMARK   45  A    between atoms: _107  and  _108
REMARK   46  A    between atoms: _111  and  _113
REMARK   47  A    between atoms: _113  and  _114
REMARK   48  A    between atoms: _113  and  _116
REMARK   49  A    between atoms: _117  and  _118
REMARK   50  A    between atoms: _118  and  _119
REMARK   51  A    between atoms: _119  and  _120
REMARK   52  A    between atoms: _124  and  _126
REMARK   53  A    between atoms: _126  and  _127
REMARK   54  A    between atoms: _126  and  _129
REMARK   55  A    between atoms: _129  and  _130
REMARK   56  A    between atoms: _130  and  _131
REMARK   57  A    between atoms: _133  and  _135
REMARK   58  A    between atoms: _135  and  _136
REMARK   59  A    between atoms: _135  and  _138
REMARK   60  A    between atoms: _138  and  _139
REMARK   61  A    between atoms: _142  and  _144
REMARK   62  A    between atoms: _144  and  _145
REMARK   63  A    between atoms: _147  and  _149
REMARK   64  A    between atoms: _149  and  _150
REMARK   65  A    between atoms: _152  and  _154
REMARK   66  A    between atoms: _154  and  _155
REMARK   67  A    between atoms: _154  and  _157
REMARK   68  A    between atoms: _157  and  _158
REMARK   69  A    between atoms: _161  and  _163
REMARK   70  A    between atoms: _163  and  _164
REMARK   71  A    between atoms: _166  and  _168
REMARK   72  A    between atoms: _168  and  _169
REMARK   73  A    between atoms: _171  and  _173
REMARK   74  A    between atoms: _173  and  _174
REMARK   75  A    between atoms: _173  and  _176
REMARK   76  A    between atoms: _176  and  _177
REMARK   77  A    between atoms: _183  and  _185
REMARK   78  A    between atoms: _185  and  _186
REMARK   79  A    between atoms: _185  and  _188
REMARK   80  A    between atoms: _188  and  _189
REMARK   81  A    between atoms: _192  and  _194
REMARK   82  A    between atoms: _194  and  _195
REMARK   83  A    between atoms: _194  and  _197
REMARK   84  A    between atoms: _200  and  _202
REMARK   85  A    between atoms: _202  and  _203
REMARK   86  A    between atoms: _202  and  _205
REMARK   87  A    between atoms: _205  and  _206
REMARK   88  A    between atoms: _209  and  _211
REMARK   89  A    between atoms: _211  and  _212
REMARK   90  A    between atoms: _211  and  _214
REMARK   91  A    between atoms: _214  and  _215
REMARK   92  A    between atoms: _219  and  _220
REMARK   93  A    between atoms: _225  and  _227
REMARK   94  A    between atoms: _227  and  _228
REMARK   95  A    between atoms: _227  and  _230
REMARK   96  A    between atoms: _233  and  _235
REMARK   97  A    between atoms: _235  and  _236
REMARK   98  A    between atoms: _235  and  _238
REMARK   99  A    between atoms: _238  and  _239
REMARK  100  A    between atoms: _244  and  _246
REMARK  101  A    between atoms: _246  and  _247
REMARK  102  A    between atoms: _246  and  _249
REMARK  103  A    between atoms: _249  and  _250
REMARK  104  A    between atoms: _253  and  _255
REMARK  105  A    between atoms: _255  and  _256
REMARK  106  A    between atoms: _255  and  _258
REMARK  107  A    between atoms: _258  and  _259
REMARK  108  A    between atoms: _262  and  _264
REMARK  109  A    between atoms: _264  and  _265
REMARK  110  A    between atoms: _267  and  _269
REMARK  111  A    between atoms: _269  and  _270
REMARK  112  A    between atoms: _269  and  _272
REMARK  113  A    between atoms: _272  and  _273
REMARK  114  A    between atoms: _273  and  _274
REMARK  115  A    between atoms: _274  and  _275
REMARK  116  A    between atoms: _284  and  _286
REMARK  117  A    between atoms: _286  and  _287
REMARK  118  A    between atoms: _286  and  _289
REMARK  119  A    between atoms: _289  and  _290
REMARK  120  A    between atoms: _295  and  _297
REMARK  121  A    between atoms: _297  and  _298
REMARK  122  A    between atoms: _297  and  _300
REMARK  123  A    between atoms: _300  and  _301
REMARK  124  A    between atoms: _301  and  _302
REMARK  125  A    between atoms: _302  and  _303
REMARK  126  A    between atoms: _312  and  _314
REMARK  127  A    between atoms: _314  and  _315
REMARK  128  A    between atoms: _314  and  _317
REMARK  129  A    between atoms: _317  and  _318
REMARK  130  A    between atoms: _321  and  _323
REMARK  131  A    between atoms: _323  and  _324
REMARK  132  A    between atoms: _323  and  _326
REMARK  133  A    between atoms: _326  and  _327
REMARK  134  A    between atoms: _330  and  _332
REMARK  135  A    between atoms: _332  and  _333
REMARK  136  A    between atoms: _332  and  _335
REMARK  137  A    between atoms: _335  and  _336
REMARK  138  A    between atoms: _339  and  _341
REMARK  139  A    between atoms: _341  and  _342
REMARK  140  A    between atoms: _341  and  _344
REMARK  141  A    between atoms: _344  and  _345
REMARK  142  A    between atoms: _348  and  _350
REMARK  143  A    between atoms: _350  and  _351
REMARK  144  A    between atoms: _353  and  _355
REMARK  145  A    between atoms: _355  and  _356
REMARK  146  A    between atoms: _359  and  _361
REMARK  147  A    between atoms: _361  and  _362
REMARK  148  A    between atoms: _361  and  _364
REMARK  149  A    between atoms: _364  and  _365
REMARK  150  A    between atoms: _368  and  _370
REMARK  151  A    between atoms: _370  and  _371
REMARK  152  A    between atoms: _370  and  _373
REMARK  153  A    between atoms: _373  and  _374
REMARK  154  A    between atoms: _379  and  _381
REMARK  155  A    between atoms: _381  and  _382
REMARK  156  A    between atoms: _381  and  _384
REMARK  157  A    between atoms: _384  and  _385
REMARK  158  A    between atoms: _388  and  _390
REMARK  159  A    between atoms: _390  and  _391
REMARK  160  A    between atoms: _390  and  _393
REMARK  161  A    between atoms: _396  and  _398
REMARK  162  A    between atoms: _398  and  _399
REMARK  163  A    between atoms: _398  and  _401
REMARK  164  A    between atoms: _401  and  _402
REMARK  165  A    between atoms: _402  and  _403
REMARK  166  A    between atoms: _403  and  _404
REMARK  167  A    between atoms: _404  and  _405
REMARK  168  A    between atoms: _409  and  _411
REMARK  169  A    between atoms: _411  and  _412
REMARK  170  A    between atoms: _411  and  _414
REMARK  171  A    between atoms: _414  and  _415
REMARK  172  A    between atoms: _415  and  _416
REMARK  173  A    between atoms: _418  and  _420
REMARK  174  A    between atoms: _420  and  _421
REMARK  175  A    between atoms: _420  and  _423
REMARK  176  A    between atoms: _423  and  _424
REMARK  177  A    between atoms: _427  and  _429
REMARK  178  A    between atoms: _429  and  _430
REMARK  179  A    between atoms: _432  and  _434
REMARK  180  A    between atoms: _434  and  _435
REMARK  181  A    between atoms: _437  and  _439
REMARK  182  A    between atoms: _439  and  _440
REMARK  183  A    between atoms: _439  and  _442
REMARK  184  A    between atoms: _442  and  _443
REMARK  185  A    between atoms: _446  and  _448
REMARK  186  A    between atoms: _448  and  _449
REMARK  187  A    between atoms: _451  and  _453
REMARK  188  A    between atoms: _453  and  _454
REMARK  189  A    between atoms: _456  and  _458
REMARK  190  A    between atoms: _458  and  _459
REMARK  191  A    between atoms: _458  and  _461
REMARK  192  A    between atoms: _461  and  _462
REMARK  193  A    between atoms: _468  and  _470
REMARK  194  A    between atoms: _470  and  _471
REMARK  195  A    between atoms: _470  and  _473
REMARK  196  A    between atoms: _473  and  _474
REMARK  197  A    between atoms: _477  and  _479
REMARK  198  A    between atoms: _479  and  _480
REMARK  199  A    between atoms: _479  and  _482
REMARK  200  A    between atoms: _485  and  _487
REMARK  201  A    between atoms: _487  and  _488
REMARK  202  A    between atoms: _487  and  _490
REMARK  203  A    between atoms: _490  and  _491
REMARK  204  A    between atoms: _494  and  _496
REMARK  205  A    between atoms: _496  and  _497
REMARK  206  A    between atoms: _496  and  _499
REMARK  207  A    between atoms: _499  and  _500
REMARK  208  A    between atoms: _504  and  _505
REMARK  209  A    between atoms: _510  and  _512
REMARK  210  A    between atoms: _512  and  _513
REMARK  211  A    between atoms: _512  and  _515
REMARK  212  A    between atoms: _518  and  _520
REMARK  213  A    between atoms: _520  and  _521
REMARK  214  A    between atoms: _520  and  _523
REMARK  215  A    between atoms: _523  and  _524
REMARK  216  A    between atoms: _529  and  _531
REMARK  217  A    between atoms: _531  and  _532
REMARK  218  A    between atoms: _531  and  _534
REMARK  219  A    between atoms: _534  and  _535
REMARK  220  A    between atoms: _538  and  _540
REMARK  221  A    between atoms: _540  and  _541
REMARK  222  A    between atoms: _540  and  _543
REMARK  223  A    between atoms: _543  and  _544
REMARK  224  A    between atoms: _547  and  _549
REMARK  225  A    between atoms: _549  and  _550
REMARK  226  A    between atoms: _552  and  _554
REMARK  227  A    between atoms: _554  and  _555
REMARK  228  A    between atoms: _554  and  _557
REMARK  229  A    between atoms: _557  and  _558
REMARK  230  A    between atoms: _558  and  _559
REMARK  231  A    between atoms: _559  and  _560
REMARK  232  A    between atoms: _569  and  _571
REMARK  233  A    between atoms: _571  and  _572
REMARK  234  A    between atoms: _571  and  _574
REMARK  235  A    between atoms: _574  and  _575
REMARK                            x       y       z     vdW  Elec       q    Type
REMARK                         _______ _______ _______ _____ _____    ______ ____
ROOT
ATOM      1  C   ALA A   6      18.303  30.389  17.503  0.00  0.00    +0.241 C 
ATOM      2  N   ASP A   7      19.629  30.423  17.551  0.00  0.00    -0.297 N 
ATOM      3  H   ASP A   7      20.158  29.531  17.626  0.00  0.00    +0.150 HD
ATOM      4  O   ALA A   6      17.655  31.433  17.472  0.00  0.00    -0.273 OA
ENDROOT
BRANCH   1   5
ATOM      5  CA  ALA A   6      17.602  29.036  17.452  0.00  0.00    +0.149 C 
ATOM      6  CB  ALA A   6      16.894  28.957  16.136  0.00  0.00    +0.031 C 
BRANCH   5   9
ATOM      7  C   GLY A   5      16.882  28.175  19.655  0.00  0.00    +0.243 C 
ATOM      8  O   GLY A   5      17.919  27.493  19.797  0.00  0.00    -0.273 OA
ATOM      9  N   ALA A   6      16.674  28.904  18.576  0.00  0.00    -0.297 N 
ATOM     10  H   ALA A   6      15.777  29.428  18.519  0.00  0.00    +0.150 HD
BRANCH   7  11
ATOM     11  CA  GLY A   5      15.855  28.125  20.763  0.00  0.00    +0.176 C 
BRANCH  11  14
ATOM     12  C   THR A   4      14.667  30.265  20.818  0.00  0.00    +0.243 C 
ATOM     13  O   THR A   4      15.610  30.822  21.385  0.00  0.00    -0.273 OA
ATOM     14  N   GLY A   5      14.717  28.981  20.512  0.00  0.00    -0.295 N 
ATOM     15  H   GLY A   5      13.882  28.557  20.060  0.00  0.00    +0.150 HD
BRANCH  12  16
ATOM     16  CA  THR A   4      13.416  31.040  20.455  0.00  0.00    +0.176 C 
BRANCH  16  18
ATOM     17  C   ASP A   3      13.013  30.201  18.210  0.00  0.00    +0.241 C 
ATOM     18  N   THR A   4      12.602  30.362  19.479  0.00  0.00    -0.295 N 
ATOM     19  H   THR A   4      11.674  29.988  19.763  0.00  0.00    +0.150 HD
ATOM     20  O   ASP A   3      14.097  30.608  17.843  0.00  0.00    -0.273 OA
BRANCH  17  21
ATOM     21  CA  ASP A   3      12.055  29.442  17.288  0.00  0.00    +0.160 C 
BRANCH  21  24
ATOM     22  C   LEU A   2       9.935  30.268  16.440  0.00  0.00    +0.241 C 
ATOM     23  O   LEU A   2       9.288  29.633  17.276  0.00  0.00    -0.273 OA
ATOM     24  N   ASP A   3      11.246  30.321  16.458  0.00  0.00    -0.297 N 
ATOM     25  H   ASP A   3      11.726  31.019  15.855  0.00  0.00    +0.150 HD
BRANCH  22  26
ATOM     26  CA  LEU A   2       9.204  30.997  15.317  0.00  0.00    +0.149 C 
BRANCH  26  28
ATOM     27  C   LEU A   1       9.336  29.314  13.559  0.00  0.00    +0.238 C 
ATOM     28  N   LEU A   2       8.620  29.981  14.436  0.00  0.00    -0.297 N 
ATOM     29  H   LEU A   2       7.602  29.781  14.508  0.00  0.00    +0.150 HD
ATOM     30  O   LEU A   1      10.511  29.591  13.323  0.00  0.00    -0.274 OA
BRANCH  27  31
ATOM     31  CA  LEU A   1       8.655  28.175  12.814  0.00  0.00    +0.145 C 
BRANCH  31  32
ATOM     32  N   LEU A   1       8.812  28.312  11.382  0.00  0.00    -0.238 NA
ATOM     33  H   LEU A   1       9.647  27.876  10.940  0.00  0.00    +0.142 HD
ENDBRANCH  31  32
BRANCH  31  34
ATOM     34  CB  LEU A   1       9.275  26.820  13.163  0.00  0.00    +0.026 C 
BRANCH  34  35
ATOM     35  CG  LEU A   1       9.219  26.241  14.537  0.00  0.00    +0.002 C 
ATOM     36  CD2 LEU A   1       7.791  25.900  14.915  0.00  0.00    +0.000 C 
ATOM     37  CD1 LEU A   1      10.118  25.015  14.562  0.00  0.00    +0.000 C 
ENDBRANCH  34  35
ENDBRANCH  31  34
ENDBRANCH  27  31
ENDBRANCH  26  28
BRANCH  26  38
ATOM     38  CB  LEU A   2       8.185  31.966  15.912  0.00  0.00    +0.029 C 
BRANCH  38  39
ATOM     39  CG  LEU A   2       7.315  32.687  14.850  0.00  0.00    +0.002 C 
ATOM     40  CD2 LEU A   2       6.245  33.524  15.543  0.00  0.00    +0.000 C 
ATOM     41  CD1 LEU A   2       8.218  33.472  13.929  0.00  0.00    +0.000 C 
ENDBRANCH  38  39
ENDBRANCH  26  38
ENDBRANCH  22  26
ENDBRANCH  21  24
BRANCH  21  42
ATOM     42  CB  ASP A   3      12.854  28.520  16.396  0.00  0.00    +0.143 C 
BRANCH  42  43
ATOM     43  CG  ASP A   3      13.522  27.381  17.124  0.00  0.00    +0.367 C 
ATOM     44  OD2 ASP A   3      13.474  27.414  18.379  0.00  0.00    -0.246 OA
ATOM     45  OD1 ASP A   3      14.104  26.500  16.435  0.00  0.00    -0.246 OA
ENDBRANCH  42  43
ENDBRANCH  21  42
ENDBRANCH  17  21
ENDBRANCH  16  18
BRANCH  16  46
ATOM     46  CB  THR A   4      12.617  31.325  21.744  0.00  0.00    +0.137 C 
ATOM     47  CG2 THR A   4      11.440  32.233  21.448  0.00  0.00    +0.034 C 
BRANCH  46  48
ATOM     48  OG1 THR A   4      12.106  30.095  22.283  0.00  0.00    -0.382 OA
ATOM     49  HG1 THR A   4      12.860  29.489  22.492  0.00  0.00    +0.210 HD
ENDBRANCH  46  48
ENDBRANCH  16  46
ENDBRANCH  12  16
ENDBRANCH  11  14
ENDBRANCH   7  11
ENDBRANCH   5   9
ENDBRANCH   1   5
BRANCH   2  50
ATOM     50  CA  ASP A   7      20.359  31.681  17.501  0.00  0.00    +0.160 C 
BRANCH  50  51
ATOM     51  C   ASP A   7      20.152  32.418  16.179  0.00  0.00    +0.241 C 
ATOM     52  O   ASP A   7      20.060  33.653  16.189  0.00  0.00    -0.273 OA
ATOM     53  N   ASN A   8      20.152  31.645  15.075  0.00  0.00    -0.297 N 
ATOM     54  H   ASN A   8      20.232  30.610  15.144  0.00  0.00    +0.150 HD
BRANCH  53  55
ATOM     55  CA  ASN A   8      20.037  32.306  13.782  0.00  0.00    +0.158 C 
BRANCH  55  56
ATOM     56  C   ASN A   8      18.966  31.614  12.941  0.00  0.00    +0.241 C 
ATOM     57  O   ASN A   8      18.558  30.503  13.116  0.00  0.00    -0.273 OA
ATOM     58  N   THR A   9      18.477  32.340  11.969  0.00  0.00    -0.295 N 
ATOM     59  H   THR A   9      18.853  33.304  11.865  0.00  0.00    +0.150 HD
BRANCH  58  60
ATOM     60  CA  THR A   9      17.466  31.927  11.030  0.00  0.00    +0.176 C 
BRANCH  60  61
ATOM     61  C   THR A   9      18.037  30.962  10.019  0.00  0.00    +0.243 C 
ATOM     62  N   VAL A  10      17.367  29.838   9.745  0.00  0.00    -0.297 N 
ATOM     63  H   VAL A  10      16.439  29.703  10.195  0.00  0.00    +0.150 HD
ATOM     64  O   THR A   9      19.109  31.239   9.479  0.00  0.00    -0.273 OA
BRANCH  62  65
ATOM     65  CA  VAL A  10      17.852  28.791   8.858  0.00  0.00    +0.149 C 
BRANCH  65  66
ATOM     66  C   VAL A  10      16.673  28.383   7.981  0.00  0.00    +0.241 C 
ATOM     67  O   VAL A  10      15.633  27.975   8.503  0.00  0.00    -0.273 OA
ATOM     68  N   ILE A  11      16.846  28.534   6.666  0.00  0.00    -0.298 N 
ATOM     69  H   ILE A  11      17.763  28.887   6.325  0.00  0.00    +0.150 HD
BRANCH  68  70
ATOM     70  CA  ILE A  11      15.802  28.225   5.673  0.00  0.00    +0.137 C 
BRANCH  70  71
ATOM     71  C   ILE A  11      16.248  27.065   4.789  0.00  0.00    +0.227 C 
ATOM     72  O   ILE A  11      17.435  26.869   4.482  0.00  0.00    -0.286 OA
ENDBRANCH  70  71
BRANCH  70  73
ATOM     73  CB  ILE A  11      15.538  29.502   4.860  0.00  0.00    +0.026 C 
ATOM     74  CG2 ILE A  11      14.512  29.322   3.770  0.00  0.00    +0.002 C 
BRANCH  73  75
ATOM     75  CG1 ILE A  11      15.117  30.709   5.741  0.00  0.00    +0.002 C 
ATOM     76  CD1 ILE A  11      13.829  30.468   6.435  0.00  0.00    +0.000 C 
ENDBRANCH  73  75
ENDBRANCH  70  73
ENDBRANCH  68  70
ENDBRANCH  65  66
BRANCH  65  77
ATOM     77  CB  VAL A  10      18.385  27.523   9.578  0.00  0.00    +0.027 C 
ATOM     78  CG2 VAL A  10      19.236  27.746  10.792  0.00  0.00    +0.002 C 
ATOM     79  CG1 VAL A  10      19.148  26.676   8.512  0.00  0.00    +0.002 C 
ENDBRANCH  65  77
ENDBRANCH  62  65
ENDBRANCH  60  61
BRANCH  60  80
ATOM     80  CB  THR A   9      16.896  33.204  10.383  0.00  0.00    +0.137 C 
ATOM     81  CG2 THR A   9      15.893  32.933   9.268  0.00  0.00    +0.034 C 
BRANCH  80  82
ATOM     82  OG1 THR A   9      16.223  33.936  11.381  0.00  0.00    -0.382 OA
ATOM     83  HG1 THR A   9      16.860  34.172  12.101  0.00  0.00    +0.210 HD
ENDBRANCH  80  82
ENDBRANCH  60  80
ENDBRANCH  58  60
ENDBRANCH  55  56
BRANCH  55  84
ATOM     84  CB  ASN A   8      21.343  32.398  13.022  0.00  0.00    +0.114 C 
BRANCH  84  85
ATOM     85  CG  ASN A   8      22.265  33.486  13.587  0.00  0.00    +0.222 C 
ATOM     86  ND2 ASN A   8      23.262  32.955  14.298  0.00  0.00    -0.329 N 
ATOM     87 HD21 ASN A   8      23.972  33.573  14.741  0.00  0.00    +0.145 HD
ATOM     88 HD22 ASN A   8      23.329  31.923  14.409  0.00  0.00    +0.145 HD
ATOM     89  OD1 ASN A   8      22.093  34.712  13.392  0.00  0.00    -0.275 OA
ENDBRANCH  84  85
ENDBRANCH  55  84
ENDBRANCH  53  55
ENDBRANCH  50  51
BRANCH  50  90
ATOM     90  CB  ASP A   7      21.845  31.425  17.706  0.00  0.00    +0.143 C 
BRANCH  90  91
ATOM     91  CG  ASP A   7      22.277  30.818  19.029  0.00  0.00    +0.367 C 
ATOM     92  OD2 ASP A   7      21.523  30.916  20.030  0.00  0.00    -0.246 OA
ATOM     93  OD1 ASP A   7      23.402  30.237  19.043  0.00  0.00    -0.246 OA
ENDBRANCH  90  91
ENDBRANCH  50  90
ENDBRANCH   2  50
TORSDOF 39
REMARK  Name = ../refined-set-2016/2f80/2f80_pocket.pdb
REMARK  235 active torsions:
REMARK  status: ('A' for Active; 'I' for Inactive)
REMARK    1  A    between atoms: _1  and  _3
REMARK    2  A    between atoms: _3  and  _4
REMARK    3  A    between atoms: _3  and  _6
REMARK    4  A    between atoms: _6  and  _7
REMARK    5  A    between atoms: _7  and  _8
REMARK    6  A    between atoms: _8  and  _9
REMARK    7  A    between atoms: _18  and  _20
REMARK    8  A    between atoms: _20  and  _21
REMARK    9  A    between atoms: _20  and  _23
REMARK   10  A    between atoms: _23  and  _24
REMARK   11  A    between atoms: _27  and  _29
REMARK   12  A    between atoms: _29  and  _30
REMARK   13  A    between atoms: _29  and  _32
REMARK   14  A    between atoms: _32  and  _33
REMARK   15  A    between atoms: _36  and  _38
REMARK   16  A    between atoms: _38  and  _39
REMARK   17  A    between atoms: _38  and  _41
REMARK   18  A    between atoms: _41  and  _42
REMARK   19  A    between atoms: _45  and  _47
REMARK   20  A    between atoms: _47  and  _48
REMARK   21  A    between atoms: _47  and  _50
REMARK   22  A    between atoms: _50  and  _51
REMARK   23  A    between atoms: _54  and  _56
REMARK   24  A    between atoms: _56  and  _57
REMARK   25  A    between atoms: _59  and  _61
REMARK   26  A    between atoms: _61  and  _62
REMARK   27  A    between atoms: _65  and  _67
REMARK   28  A    between atoms: _67  and  _68
REMARK   29  A    between atoms: _67  and  _70
REMARK   30  A    between atoms: _70  and  _71
REMARK   31  A    between atoms: _74  and  _76
REMARK   32  A    between atoms: _76  and  _77
REMARK   33  A    between atoms: _76  and  _79
REMARK   34  A    between atoms: _79  and  _80
REMARK   35  A    between atoms: _85  and  _87
REMARK   36  A    between atoms: _87  and  _88
REMARK   37  A    between atoms: _87  and  _90
REMARK   38  A    between atoms: _90  and  _91
REMARK   39  A    between atoms: _94  and  _96
REMARK   40  A    between atoms: _96  and  _97
REMARK   41  A    between atoms: _96  and  _99
REMARK   42  A    between atoms: _102  and  _104
REMARK   43  A    between atoms: _104  and  _105
REMARK   44  A    between atoms: _104  and  _107
REMARK   45  A    between atoms: _107  and  _108
REMARK   46  A    between atoms: _111  and  _113
REMARK   47  A    between atoms: _113  and  _114
REMARK   48  A    between atoms: _113  and  _116
REMARK   49  A    between atoms: _117  and  _118
REMARK   50  A    between atoms: _118  and  _119
REMARK   51  A    between atoms: _119  and  _120
REMARK   52  A    between atoms: _124  and  _126
REMARK   53  A    between atoms: _126  and  _127
REMARK   54  A    between atoms: _126  and  _129
REMARK   55  A    between atoms: _129  and  _130
REMARK   56  A    between atoms: _130  and  _131
REMARK   57  A    between atoms: _133  and  _135
REMARK   58  A    between atoms: _135  and  _136
REMARK   59  A    between atoms: _135  and  _138
REMARK   60  A    between atoms: _138  and  _139
REMARK   61  A    between atoms: _142  and  _144
REMARK   62  A    between atoms: _144  and  _145
REMARK   63  A    between atoms: _147  and  _149
REMARK   64  A    between atoms: _149  and  _150
REMARK   65  A    between atoms: _152  and  _154
REMARK   66  A    between atoms: _154  and  _155
REMARK   67  A    between atoms: _154  and  _157
REMARK   68  A    between atoms: _157  and  _158
REMARK   69  A    between atoms: _161  and  _163
REMARK   70  A    between atoms: _163  and  _164
REMARK   71  A    between atoms: _166  and  _168
REMARK   72  A    between atoms: _168  and  _169
REMARK   73  A    between atoms: _171  and  _173
REMARK   74  A    between atoms: _173  and  _174
REMARK   75  A    between atoms: _173  and  _176
REMARK   76  A    between atoms: _176  and  _177
REMARK   77  A    between atoms: _183  and  _185
REMARK   78  A    between atoms: _185  and  _186
REMARK   79  A    between atoms: _185  and  _188
REMARK   80  A    between atoms: _188  and  _189
REMARK   81  A    between atoms: _192  and  _194
REMARK   82  A    between atoms: _194  and  _195
REMARK   83  A    between atoms: _194  and  _197
REMARK   84  A    between atoms: _200  and  _202
REMARK   85  A    between atoms: _202  and  _203
REMARK   86  A    between atoms: _202  and  _205
REMARK   87  A    between atoms: _205  and  _206
REMARK   88  A    between atoms: _209  and  _211
REMARK   89  A    between atoms: _211  and  _212
REMARK   90  A    between atoms: _211  and  _214
REMARK   91  A    between atoms: _214  and  _215
REMARK   92  A    between atoms: _219  and  _220
REMARK   93  A    between atoms: _225  and  _227
REMARK   94  A    between atoms: _227  and  _228
REMARK   95  A    between atoms: _227  and  _230
REMARK   96  A    between atoms: _233  and  _235
REMARK   97  A    between atoms: _235  and  _236
REMARK   98  A    between atoms: _235  and  _238
REMARK   99  A    between atoms: _238  and  _239
REMARK  100  A    between atoms: _244  and  _246
REMARK  101  A    between atoms: _246  and  _247
REMARK  102  A    between atoms: _246  and  _249
REMARK  103  A    between atoms: _249  and  _250
REMARK  104  A    between atoms: _253  and  _255
REMARK  105  A    between atoms: _255  and  _256
REMARK  106  A    between atoms: _255  and  _258
REMARK  107  A    between atoms: _258  and  _259
REMARK  108  A    between atoms: _262  and  _264
REMARK  109  A    between atoms: _264  and  _265
REMARK  110  A    between atoms: _267  and  _269
REMARK  111  A    between atoms: _269  and  _270
REMARK  112  A    between atoms: _269  and  _272
REMARK  113  A    between atoms: _272  and  _273
REMARK  114  A    between atoms: _273  and  _274
REMARK  115  A    between atoms: _274  and  _275
REMARK  116  A    between atoms: _284  and  _286
REMARK  117  A    between atoms: _286  and  _287
REMARK  118  A    between atoms: _286  and  _289
REMARK  119  A    between atoms: _289  and  _290
REMARK  120  A    between atoms: _295  and  _297
REMARK  121  A    between atoms: _297  and  _298
REMARK  122  A    between atoms: _297  and  _300
REMARK  123  A    between atoms: _300  and  _301
REMARK  124  A    between atoms: _301  and  _302
REMARK  125  A    between atoms: _302  and  _303
REMARK  126  A    between atoms: _312  and  _314
REMARK  127  A    between atoms: _314  and  _315
REMARK  128  A    between atoms: _314  and  _317
REMARK  129  A    between atoms: _317  and  _318
REMARK  130  A    between atoms: _321  and  _323
REMARK  131  A    between atoms: _323  and  _324
REMARK  132  A    between atoms: _323  and  _326
REMARK  133  A    between atoms: _326  and  _327
REMARK  134  A    between atoms: _330  and  _332
REMARK  135  A    between atoms: _332  and  _333
REMARK  136  A    between atoms: _332  and  _335
REMARK  137  A    between atoms: _335  and  _336
REMARK  138  A    between atoms: _339  and  _341
REMARK  139  A    between atoms: _341  and  _342
REMARK  140  A    between atoms: _341  and  _344
REMARK  141  A    between atoms: _344  and  _345
REMARK  142  A    between atoms: _348  and  _350
REMARK  143  A    between atoms: _350  and  _351
REMARK  144  A    between atoms: _353  and  _355
REMARK  145  A    between atoms: _355  and  _356
REMARK  146  A    between atoms: _359  and  _361
REMARK  147  A    between atoms: _361  and  _362
REMARK  148  A    between atoms: _361  and  _364
REMARK  149  A    between atoms: _364  and  _365
REMARK  150  A    between atoms: _368  and  _370
REMARK  151  A    between atoms: _370  and  _371
REMARK  152  A    between atoms: _370  and  _373
REMARK  153  A    between atoms: _373  and  _374
REMARK  154  A    between atoms: _379  and  _381
REMARK  155  A    between atoms: _381  and  _382
REMARK  156  A    between atoms: _381  and  _384
REMARK  157  A    between atoms: _384  and  _385
REMARK  158  A    between atoms: _388  and  _390
REMARK  159  A    between atoms: _390  and  _391
REMARK  160  A    between atoms: _390  and  _393
REMARK  161  A    between atoms: _396  and  _398
REMARK  162  A    between atoms: _398  and  _399
REMARK  163  A    between atoms: _398  and  _401
REMARK  164  A    between atoms: _401  and  _402
REMARK  165  A    between atoms: _402  and  _403
REMARK  166  A    between atoms: _403  and  _404
REMARK  167  A    between atoms: _404  and  _405
REMARK  168  A    between atoms: _409  and  _411
REMARK  169  A    between atoms: _411  and  _412
REMARK  170  A    between atoms: _411  and  _414
REMARK  171  A    between atoms: _414  and  _415
REMARK  172  A    between atoms: _415  and  _416
REMARK  173  A    between atoms: _418  and  _420
REMARK  174  A    between atoms: _420  and  _421
REMARK  175  A    between atoms: _420  and  _423
REMARK  176  A    between atoms: _423  and  _424
REMARK  177  A    between atoms: _427  and  _429
REMARK  178  A    between atoms: _429  and  _430
REMARK  179  A    between atoms: _432  and  _434
REMARK  180  A    between atoms: _434  and  _435
REMARK  181  A    between atoms: _437  and  _439
REMARK  182  A    between atoms: _439  and  _440
REMARK  183  A    between atoms: _439  and  _442
REMARK  184  A    between atoms: _442  and  _443
REMARK  185  A    between atoms: _446  and  _448
REMARK  186  A    between atoms: _448  and  _449
REMARK  187  A    between atoms: _451  and  _453
REMARK  188  A    between atoms: _453  and  _454
REMARK  189  A    between atoms: _456  and  _458
REMARK  190  A    between atoms: _458  and  _459
REMARK  191  A    between atoms: _458  and  _461
REMARK  192  A    between atoms: _461  and  _462
REMARK  193  A    between atoms: _468  and  _470
REMARK  194  A    between atoms: _470  and  _471
REMARK  195  A    between atoms: _470  and  _473
REMARK  196  A    between atoms: _473  and  _474
REMARK  197  A    between atoms: _477  and  _479
REMARK  198  A    between atoms: _479  and  _480
REMARK  199  A    between atoms: _479  and  _482
REMARK  200  A    between atoms: _485  and  _487
REMARK  201  A    between atoms: _487  and  _488
REMARK  202  A    between atoms: _487  and  _490
REMARK  203  A    between atoms: _490  and  _491
REMARK  204  A    between atoms: _494  and  _496
REMARK  205  A    between atoms: _496  and  _497
REMARK  206  A    between atoms: _496  and  _499
REMARK  207  A    between atoms: _499  and  _500
REMARK  208  A    between atoms: _504  and  _505
REMARK  209  A    between atoms: _510  and  _512
REMARK  210  A    between atoms: _512  and  _513
REMARK  211  A    between atoms: _512  and  _515
REMARK  212  A    between atoms: _518  and  _520
REMARK  213  A    between atoms: _520  and  _521
REMARK  214  A    between atoms: _520  and  _523
REMARK  215  A    between atoms: _523  and  _524
REMARK  216  A    between atoms: _529  and  _531
REMARK  217  A    between atoms: _531  and  _532
REMARK  218  A    between atoms: _531  and  _534
REMARK  219  A    between atoms: _534  and  _535
REMARK  220  A    between atoms: _538  and  _540
REMARK  221  A    between atoms: _540  and  _541
REMARK  222  A    between atoms: _540  and  _543
REMARK  223  A    between atoms: _543  and  _544
REMARK  224  A    between atoms: _547  and  _549
REMARK  225  A    between atoms: _549  and  _550
REMARK  226  A    between atoms: _552  and  _554
REMARK  227  A    between atoms: _554  and  _555
REMARK  228  A    between atoms: _554  and  _557
REMARK  229  A    between atoms: _557  and  _558
REMARK  230  A    between atoms: _558  and  _559
REMARK  231  A    between atoms: _559  and  _560
REMARK  232  A    between atoms: _569  and  _571
REMARK  233  A    between atoms: _571  and  _572
REMARK  234  A    between atoms: _571  and  _574
REMARK  235  A    between atoms: _574  and  _575
REMARK                            x       y       z     vdW  Elec       q    Type
REMARK                         _______ _______ _______ _____ _____    ______ ____
ROOT
ATOM      1  C   GLY A   5      21.591  19.540  17.489  0.00  0.00    +0.243 C 
ATOM      2  N   ILE A   6      20.345  19.148  17.738  0.00  0.00    -0.297 N 
ATOM      3  H   ILE A   6      19.523  19.762  17.567  0.00  0.00    +0.150 HD
ATOM      4  O   GLY A   5      22.618  18.884  17.558  0.00  0.00    -0.273 OA
ENDROOT
BRANCH   1   5
ATOM      5  CA  GLY A   5      21.764  20.974  17.054  0.00  0.00    +0.176 C 
BRANCH   5   8
ATOM      6  C   GLY A   4      23.518  22.287  16.063  0.00  0.00    +0.243 C 
ATOM      7  O   GLY A   4      23.107  23.300  16.600  0.00  0.00    -0.273 OA
ATOM      8  N   GLY A   5      22.930  21.115  16.217  0.00  0.00    -0.295 N 
ATOM      9  H   GLY A   5      23.313  20.281  15.728  0.00  0.00    +0.150 HD
BRANCH   6  10
ATOM     10  CA  GLY A   4      24.736  22.284  15.188  0.00  0.00    +0.176 C 
BRANCH  10  12
ATOM     11  C   ILE A   3      25.057  23.560  13.169  0.00  0.00    +0.241 C 
ATOM     12  N   GLY A   4      24.963  23.522  14.491  0.00  0.00    -0.295 N 
ATOM     13  H   GLY A   4      25.055  24.404  15.034  0.00  0.00    +0.150 HD
ATOM     14  O   ILE A   3      24.867  22.598  12.451  0.00  0.00    -0.273 OA
BRANCH  11  15
ATOM     15  CA  ILE A   3      25.463  24.902  12.577  0.00  0.00    +0.149 C 
BRANCH  15  18
ATOM     16  C   MET A   2      27.545  25.145  11.312  0.00  0.00    +0.241 C 
ATOM     17  O   MET A   2      28.006  25.904  12.178  0.00  0.00    -0.273 OA
ATOM     18  N   ILE A   3      26.328  24.653  11.416  0.00  0.00    -0.297 N 
ATOM     19  H   ILE A   3      25.963  24.062  10.642  0.00  0.00    +0.150 HD
BRANCH  16  20
ATOM     20  CA  MET A   2      28.391  24.761  10.111  0.00  0.00    +0.149 C 
BRANCH  20  22
ATOM     21  C   LYS A   1      28.654  26.444   8.374  0.00  0.00    +0.243 C 
ATOM     22  N   MET A   2      28.986  25.954   9.545  0.00  0.00    -0.297 N 
ATOM     23  H   MET A   2      29.716  26.449  10.096  0.00  0.00    +0.150 HD
ATOM     24  O   LYS A   1      27.980  25.812   7.548  0.00  0.00    -0.273 OA
BRANCH  21  25
ATOM     25  CA  LYS A   1      29.089  27.864   8.043  0.00  0.00    +0.167 C 
BRANCH  25  26
ATOM     26  N   LYS A   1      29.194  27.939   6.589  0.00  0.00    -0.234 NA
ATOM     27  H   LYS A   1      28.534  27.375   6.016  0.00  0.00    +0.142 HD
ENDBRANCH  25  26
BRANCH  25  28
ATOM     28  CB  LYS A   1      28.117  28.911   8.587  0.00  0.00    -0.005 C 
ATOM     29  CG  LYS A   1      28.157  29.149  10.081  0.00  0.00    -0.031 C 
BRANCH  29  30
ATOM     30  CD  LYS A   1      27.201  30.213  10.597  0.00  0.00    +0.002 C 
BRANCH  30  31
ATOM     31  CE  LYS A   1      27.455  30.451  12.084  0.00  0.00    -0.081 C 
BRANCH  31  32
ATOM     32  NZ  LYS A   1      26.703  31.606  12.589  0.00  0.00    +0.381 N 
ATOM     33  HZ1 LYS A   1      26.903  31.733  13.602  0.00  0.00    -0.089 HD
ATOM     34  HZ2 LYS A   1      25.685  31.441  12.454  0.00  0.00    -0.089 HD
ATOM     35  HZ3 LYS A   1      26.990  32.459  12.068  0.00  0.00    -0.089 HD
ENDBRANCH  31  32
ENDBRANCH  30  31
ENDBRANCH  29  30
ENDBRANCH  25  28
ENDBRANCH  21  25
ENDBRANCH  20  22
BRANCH  20  36
ATOM     36  CB  MET A   2      29.474  23.807  10.584  0.00  0.00    +0.041 C 
BRANCH  36  37
ATOM     37  CG  MET A   2      30.248  23.216   9.436  0.00  0.00    +0.060 C 
BRANCH  37  38
ATOM     38  SD  MET A   2      29.360  21.773   8.889  0.00  0.00    -0.139 S 
ATOM     39  CE  MET A   2      29.845  20.474  10.051  0.00  0.00    +0.069 C 
ENDBRANCH  37  38
ENDBRANCH  36  37
ENDBRANCH  20  36
ENDBRANCH  16  20
ENDBRANCH  15  18
BRANCH  15  40
ATOM     40  CB  ILE A   3      24.199  25.738  12.282  0.00  0.00    +0.027 C 
ATOM     41  CG2 ILE A   3      24.572  27.156  11.927  0.00  0.00    +0.002 C 
BRANCH  40  42
ATOM     42  CG1 ILE A   3      23.287  25.133  11.227  0.00  0.00    +0.002 C 
ATOM     43  CD1 ILE A   3      21.925  25.808  11.074  0.00  0.00    +0.000 C 
ENDBRANCH  40  42
ENDBRANCH  15  40
ENDBRANCH  11  15
ENDBRANCH  10  12
ENDBRANCH   6  10
ENDBRANCH   5   8
ENDBRANCH   1   5
BRANCH   2  44
ATOM     44  CA  ILE A   6      20.214  17.789  18.270  0.00  0.00    +0.149 C 
BRANCH  44  45
ATOM     45  C   ILE A   6      20.539  16.922  17.049  0.00  0.00    +0.241 C 
ATOM     46  N   GLY A   7      21.315  15.831  17.102  0.00  0.00    -0.295 N 
ATOM     47  H   GLY A   7      21.723  15.493  17.997  0.00  0.00    +0.150 HD
ATOM     48  O   ILE A   6      20.077  17.155  15.901  0.00  0.00    -0.273 OA
BRANCH  46  49
ATOM     49  CA  GLY A   7      21.558  15.142  15.841  0.00  0.00    +0.176 C 
BRANCH  49  50
ATOM     50  C   GLY A   7      22.872  15.548  15.211  0.00  0.00    +0.243 C 
ATOM     51  N   GLY A   8      23.492  16.639  15.602  0.00  0.00    -0.295 N 
ATOM     52  H   GLY A   8      23.054  17.227  16.340  0.00  0.00    +0.150 HD
ATOM     53  O   GLY A   7      23.298  14.849  14.313  0.00  0.00    -0.273 OA
BRANCH  51  54
ATOM     54  CA  GLY A   8      24.765  17.054  15.043  0.00  0.00    +0.176 C 
BRANCH  54  55
ATOM     55  C   GLY A   8      24.723  18.290  14.171  0.00  0.00    +0.243 C 
ATOM     56  O   GLY A   8      23.843  19.134  14.373  0.00  0.00    -0.273 OA
ATOM     57  N   PHE A   9      25.654  18.423  13.217  0.00  0.00    -0.297 N 
ATOM     58  H   PHE A   9      26.297  17.628  13.027  0.00  0.00    +0.150 HD
BRANCH  57  59
ATOM     59  CA  PHE A   9      25.795  19.642  12.439  0.00  0.00    +0.153 C 
BRANCH  59  60
ATOM     60  C   PHE A   9      25.395  19.504  10.984  0.00  0.00    +0.241 C 
ATOM     61  O   PHE A   9      25.530  18.410  10.436  0.00  0.00    -0.273 OA
ATOM     62  N   ILE A  10      24.962  20.612  10.415  0.00  0.00    -0.298 N 
ATOM     63  H   ILE A  10      24.757  21.442  11.007  0.00  0.00    +0.150 HD
BRANCH  62  64
ATOM     64  CA  ILE A  10      24.765  20.696   8.978  0.00  0.00    +0.137 C 
BRANCH  64  65
ATOM     65  CB  ILE A  10      23.300  20.839   8.568  0.00  0.00    +0.026 C 
ATOM     66  CG2 ILE A  10      22.490  19.616   8.958  0.00  0.00    +0.002 C 
BRANCH  65  67
ATOM     67  CG1 ILE A  10      22.665  22.137   9.077  0.00  0.00    +0.002 C 
ATOM     68  CD1 ILE A  10      21.316  22.462   8.458  0.00  0.00    +0.000 C 
ENDBRANCH  65  67
ENDBRANCH  64  65
BRANCH  64  69
ATOM     69  C   ILE A  10      25.566  21.891   8.420  0.00  0.00    +0.227 C 
ATOM     70  O   ILE A  10      25.827  22.859   9.115  0.00  0.00    -0.286 OA
ENDBRANCH  64  69
ENDBRANCH  62  64
ENDBRANCH  59  60
BRANCH  59  71
ATOM     71  CB  PHE A   9      27.263  20.098  12.443  0.00  0.00    +0.055 C 
BRANCH  71  72
ATOM     72  CG  PHE A   9      27.732  20.666  13.765  0.00  0.00    -0.020 A 
ATOM     73  CD2 PHE A   9      27.990  19.815  14.816  0.00  0.00    -0.004 A 
ATOM     74  CE2 PHE A   9      28.411  20.339  16.023  0.00  0.00    -0.000 A 
ATOM     75  CZ  PHE A   9      28.528  21.720  16.121  0.00  0.00    -0.000 A 
ATOM     76  CE1 PHE A   9      28.283  22.590  15.075  0.00  0.00    -0.000 A 
ATOM     77  CD1 PHE A   9      27.891  22.030  13.877  0.00  0.00    -0.004 A 
ENDBRANCH  71  72
ENDBRANCH  59  71
ENDBRANCH  57  59
ENDBRANCH  54  55
ENDBRANCH  51  54
ENDBRANCH  49  50
ENDBRANCH  46  49
ENDBRANCH  44  45
BRANCH  44  78
ATOM     78  CB  ILE A   6      18.772  17.429  18.682  0.00  0.00    +0.027 C 
ATOM     79  CG2 ILE A   6      18.326  15.992  18.566  0.00  0.00    +0.002 C 
BRANCH  78  80
ATOM     80  CG1 ILE A   6      18.646  17.761  20.191  0.00  0.00    +0.002 C 
ATOM     81  CD1 ILE A   6      17.294  17.689  20.803  0.00  0.00    +0.000 C 
ENDBRANCH  78  80
ENDBRANCH  44  78
ENDBRANCH   2  44
TORSDOF 35
REMARK  Name = ../refined-set-2016/2f80/2f80_pocket.pdb
REMARK  235 active torsions:
REMARK  status: ('A' for Active; 'I' for Inactive)
REMARK    1  A    between atoms: _1  and  _3
REMARK    2  A    between atoms: _3  and  _4
REMARK    3  A    between atoms: _3  and  _6
REMARK    4  A    between atoms: _6  and  _7
REMARK    5  A    between atoms: _7  and  _8
REMARK    6  A    between atoms: _8  and  _9
REMARK    7  A    between atoms: _18  and  _20
REMARK    8  A    between atoms: _20  and  _21
REMARK    9  A    between atoms: _20  and  _23
REMARK   10  A    between atoms: _23  and  _24
REMARK   11  A    between atoms: _27  and  _29
REMARK   12  A    between atoms: _29  and  _30
REMARK   13  A    between atoms: _29  and  _32
REMARK   14  A    between atoms: _32  and  _33
REMARK   15  A    between atoms: _36  and  _38
REMARK   16  A    between atoms: _38  and  _39
REMARK   17  A    between atoms: _38  and  _41
REMARK   18  A    between atoms: _41  and  _42
REMARK   19  A    between atoms: _45  and  _47
REMARK   20  A    between atoms: _47  and  _48
REMARK   21  A    between atoms: _47  and  _50
REMARK   22  A    between atoms: _50  and  _51
REMARK   23  A    between atoms: _54  and  _56
REMARK   24  A    between atoms: _56  and  _57
REMARK   25  A    between atoms: _59  and  _61
REMARK   26  A    between atoms: _61  and  _62
REMARK   27  A    between atoms: _65  and  _67
REMARK   28  A    between atoms: _67  and  _68
REMARK   29  A    between atoms: _67  and  _70
REMARK   30  A    between atoms: _70  and  _71
REMARK   31  A    between atoms: _74  and  _76
REMARK   32  A    between atoms: _76  and  _77
REMARK   33  A    between atoms: _76  and  _79
REMARK   34  A    between atoms: _79  and  _80
REMARK   35  A    between atoms: _85  and  _87
REMARK   36  A    between atoms: _87  and  _88
REMARK   37  A    between atoms: _87  and  _90
REMARK   38  A    between atoms: _90  and  _91
REMARK   39  A    between atoms: _94  and  _96
REMARK   40  A    between atoms: _96  and  _97
REMARK   41  A    between atoms: _96  and  _99
REMARK   42  A    between atoms: _102  and  _104
REMARK   43  A    between atoms: _104  and  _105
REMARK   44  A    between atoms: _104  and  _107
REMARK   45  A    between atoms: _107  and  _108
REMARK   46  A    between atoms: _111  and  _113
REMARK   47  A    between atoms: _113  and  _114
REMARK   48  A    between atoms: _113  and  _116
REMARK   49  A    between atoms: _117  and  _118
REMARK   50  A    between atoms: _118  and  _119
REMARK   51  A    between atoms: _119  and  _120
REMARK   52  A    between atoms: _124  and  _126
REMARK   53  A    between atoms: _126  and  _127
REMARK   54  A    between atoms: _126  and  _129
REMARK   55  A    between atoms: _129  and  _130
REMARK   56  A    between atoms: _130  and  _131
REMARK   57  A    between atoms: _133  and  _135
REMARK   58  A    between atoms: _135  and  _136
REMARK   59  A    between atoms: _135  and  _138
REMARK   60  A    between atoms: _138  and  _139
REMARK   61  A    between atoms: _142  and  _144
REMARK   62  A    between atoms: _144  and  _145
REMARK   63  A    between atoms: _147  and  _149
REMARK   64  A    between atoms: _149  and  _150
REMARK   65  A    between atoms: _152  and  _154
REMARK   66  A    between atoms: _154  and  _155
REMARK   67  A    between atoms: _154  and  _157
REMARK   68  A    between atoms: _157  and  _158
REMARK   69  A    between atoms: _161  and  _163
REMARK   70  A    between atoms: _163  and  _164
REMARK   71  A    between atoms: _166  and  _168
REMARK   72  A    between atoms: _168  and  _169
REMARK   73  A    between atoms: _171  and  _173
REMARK   74  A    between atoms: _173  and  _174
REMARK   75  A    between atoms: _173  and  _176
REMARK   76  A    between atoms: _176  and  _177
REMARK   77  A    between atoms: _183  and  _185
REMARK   78  A    between atoms: _185  and  _186
REMARK   79  A    between atoms: _185  and  _188
REMARK   80  A    between atoms: _188  and  _189
REMARK   81  A    between atoms: _192  and  _194
REMARK   82  A    between atoms: _194  and  _195
REMARK   83  A    between atoms: _194  and  _197
REMARK   84  A    between atoms: _200  and  _202
REMARK   85  A    between atoms: _202  and  _203
REMARK   86  A    between atoms: _202  and  _205
REMARK   87  A    between atoms: _205  and  _206
REMARK   88  A    between atoms: _209  and  _211
REMARK   89  A    between atoms: _211  and  _212
REMARK   90  A    between atoms: _211  and  _214
REMARK   91  A    between atoms: _214  and  _215
REMARK   92  A    between atoms: _219  and  _220
REMARK   93  A    between atoms: _225  and  _227
REMARK   94  A    between atoms: _227  and  _228
REMARK   95  A    between atoms: _227  and  _230
REMARK   96  A    between atoms: _233  and  _235
REMARK   97  A    between atoms: _235  and  _236
REMARK   98  A    between atoms: _235  and  _238
REMARK   99  A    between atoms: _238  and  _239
REMARK  100  A    between atoms: _244  and  _246
REMARK  101  A    between atoms: _246  and  _247
REMARK  102  A    between atoms: _246  and  _249
REMARK  103  A    between atoms: _249  and  _250
REMARK  104  A    between atoms: _253  and  _255
REMARK  105  A    between atoms: _255  and  _256
REMARK  106  A    between atoms: _255  and  _258
REMARK  107  A    between atoms: _258  and  _259
REMARK  108  A    between atoms: _262  and  _264
REMARK  109  A    between atoms: _264  and  _265
REMARK  110  A    between atoms: _267  and  _269
REMARK  111  A    between atoms: _269  and  _270
REMARK  112  A    between atoms: _269  and  _272
REMARK  113  A    between atoms: _272  and  _273
REMARK  114  A    between atoms: _273  and  _274
REMARK  115  A    between atoms: _274  and  _275
REMARK  116  A    between atoms: _284  and  _286
REMARK  117  A    between atoms: _286  and  _287
REMARK  118  A    between atoms: _286  and  _289
REMARK  119  A    between atoms: _289  and  _290
REMARK  120  A    between atoms: _295  and  _297
REMARK  121  A    between atoms: _297  and  _298
REMARK  122  A    between atoms: _297  and  _300
REMARK  123  A    between atoms: _300  and  _301
REMARK  124  A    between atoms: _301  and  _302
REMARK  125  A    between atoms: _302  and  _303
REMARK  126  A    between atoms: _312  and  _314
REMARK  127  A    between atoms: _314  and  _315
REMARK  128  A    between atoms: _314  and  _317
REMARK  129  A    between atoms: _317  and  _318
REMARK  130  A    between atoms: _321  and  _323
REMARK  131  A    between atoms: _323  and  _324
REMARK  132  A    between atoms: _323  and  _326
REMARK  133  A    between atoms: _326  and  _327
REMARK  134  A    between atoms: _330  and  _332
REMARK  135  A    between atoms: _332  and  _333
REMARK  136  A    between atoms: _332  and  _335
REMARK  137  A    between atoms: _335  and  _336
REMARK  138  A    between atoms: _339  and  _341
REMARK  139  A    between atoms: _341  and  _342
REMARK  140  A    between atoms: _341  and  _344
REMARK  141  A    between atoms: _344  and  _345
REMARK  142  A    between atoms: _348  and  _350
REMARK  143  A    between atoms: _350  and  _351
REMARK  144  A    between atoms: _353  and  _355
REMARK  145  A    between atoms: _355  and  _356
REMARK  146  A    between atoms: _359  and  _361
REMARK  147  A    between atoms: _361  and  _362
REMARK  148  A    between atoms: _361  and  _364
REMARK  149  A    between atoms: _364  and  _365
REMARK  150  A    between atoms: _368  and  _370
REMARK  151  A    between atoms: _370  and  _371
REMARK  152  A    between atoms: _370  and  _373
REMARK  153  A    between atoms: _373  and  _374
REMARK  154  A    between atoms: _379  and  _381
REMARK  155  A    between atoms: _381  and  _382
REMARK  156  A    between atoms: _381  and  _384
REMARK  157  A    between atoms: _384  and  _385
REMARK  158  A    between atoms: _388  and  _390
REMARK  159  A    between atoms: _390  and  _391
REMARK  160  A    between atoms: _390  and  _393
REMARK  161  A    between atoms: _396  and  _398
REMARK  162  A    between atoms: _398  and  _399
REMARK  163  A    between atoms: _398  and  _401
REMARK  164  A    between atoms: _401  and  _402
REMARK  165  A    between atoms: _402  and  _403
REMARK  166  A    between atoms: _403  and  _404
REMARK  167  A    between atoms: _404  and  _405
REMARK  168  A    between atoms: _409  and  _411
REMARK  169  A    between atoms: _411  and  _412
REMARK  170  A    between atoms: _411  and  _414
REMARK  171  A    between atoms: _414  and  _415
REMARK  172  A    between atoms: _415  and  _416
REMARK  173  A    between atoms: _418  and  _420
REMARK  174  A    between atoms: _420  and  _421
REMARK  175  A    between atoms: _420  and  _423
REMARK  176  A    between atoms: _423  and  _424
REMARK  177  A    between atoms: _427  and  _429
REMARK  178  A    between atoms: _429  and  _430
REMARK  179  A    between atoms: _432  and  _434
REMARK  180  A    between atoms: _434  and  _435
REMARK  181  A    between atoms: _437  and  _439
REMARK  182  A    between atoms: _439  and  _440
REMARK  183  A    between atoms: _439  and  _442
REMARK  184  A    between atoms: _442  and  _443
REMARK  185  A    between atoms: _446  and  _448
REMARK  186  A    between atoms: _448  and  _449
REMARK  187  A    between atoms: _451  and  _453
REMARK  188  A    between atoms: _453  and  _454
REMARK  189  A    between atoms: _456  and  _458
REMARK  190  A    between atoms: _458  and  _459
REMARK  191  A    between atoms: _458  and  _461
REMARK  192  A    between atoms: _461  and  _462
REMARK  193  A    between atoms: _468  and  _470
REMARK  194  A    between atoms: _470  and  _471
REMARK  195  A    between atoms: _470  and  _473
REMARK  196  A    between atoms: _473  and  _474
REMARK  197  A    between atoms: _477  and  _479
REMARK  198  A    between atoms: _479  and  _480
REMARK  199  A    between atoms: _479  and  _482
REMARK  200  A    between atoms: _485  and  _487
REMARK  201  A    between atoms: _487  and  _488
REMARK  202  A    between atoms: _487  and  _490
REMARK  203  A    between atoms: _490  and  _491
REMARK  204  A    between atoms: _494  and  _496
REMARK  205  A    between atoms: _496  and  _497
REMARK  206  A    between atoms: _496  and  _499
REMARK  207  A    between atoms: _499  and  _500
REMARK  208  A    between atoms: _504  and  _505
REMARK  209  A    between atoms: _510  and  _512
REMARK  210  A    between atoms: _512  and  _513
REMARK  211  A    between atoms: _512  and  _515
REMARK  212  A    between atoms: _518  and  _520
REMARK  213  A    between atoms: _520  and  _521
REMARK  214  A    between atoms: _520  and  _523
REMARK  215  A    between atoms: _523  and  _524
REMARK  216  A    between atoms: _529  and  _531
REMARK  217  A    between atoms: _531  and  _532
REMARK  218  A    between atoms: _531  and  _534
REMARK  219  A    between atoms: _534  and  _535
REMARK  220  A    between atoms: _538  and  _540
REMARK  221  A    between atoms: _540  and  _541
REMARK  222  A    between atoms: _540  and  _543
REMARK  223  A    between atoms: _543  and  _544
REMARK  224  A    between atoms: _547  and  _549
REMARK  225  A    between atoms: _549  and  _550
REMARK  226  A    between atoms: _552  and  _554
REMARK  227  A    between atoms: _554  and  _555
REMARK  228  A    between atoms: _554  and  _557
REMARK  229  A    between atoms: _557  and  _558
REMARK  230  A    between atoms: _558  and  _559
REMARK  231  A    between atoms: _559  and  _560
REMARK  232  A    between atoms: _569  and  _571
REMARK  233  A    between atoms: _571  and  _572
REMARK  234  A    between atoms: _571  and  _574
REMARK  235  A    between atoms: _574  and  _575
REMARK                            x       y       z     vdW  Elec       q    Type
REMARK                         _______ _______ _______ _____ _____    ______ ____
ROOT
ATOM      1  CA  VAL A   1      24.842  25.989   5.400  0.00  0.00    +0.133 C 
ENDROOT
BRANCH   1   2
ATOM      2  CB  VAL A   1      23.973  26.607   6.502  0.00  0.00    +0.023 C 
ATOM      3  CG2 VAL A   1      24.810  27.359   7.530  0.00  0.00    +0.002 C 
ATOM      4  CG1 VAL A   1      23.144  25.522   7.147  0.00  0.00    +0.002 C 
ENDBRANCH   1   2
BRANCH   1   5
ATOM      5  N   VAL A   1      25.746  24.988   5.950  0.00  0.00    -0.239 NA
ATOM      6  H   VAL A   1      26.558  25.306   6.517  0.00  0.00    +0.142 HD
ENDBRANCH   1   5
BRANCH   1   7
ATOM      7  C   VAL A   1      25.639  27.069   4.666  0.00  0.00    +0.224 C 
ATOM      8  O   VAL A   1      26.845  27.184   4.869  0.00  0.00    -0.287 OA
ENDBRANCH   1   7
TORSDOF 3
REMARK  Name = ../refined-set-2016/2f80/2f80_pocket.pdb
REMARK  235 active torsions:
REMARK  status: ('A' for Active; 'I' for Inactive)
REMARK    1  A    between atoms: _1  and  _3
REMARK    2  A    between atoms: _3  and  _4
REMARK    3  A    between atoms: _3  and  _6
REMARK    4  A    between atoms: _6  and  _7
REMARK    5  A    between atoms: _7  and  _8
REMARK    6  A    between atoms: _8  and  _9
REMARK    7  A    between atoms: _18  and  _20
REMARK    8  A    between atoms: _20  and  _21
REMARK    9  A    between atoms: _20  and  _23
REMARK   10  A    between atoms: _23  and  _24
REMARK   11  A    between atoms: _27  and  _29
REMARK   12  A    between atoms: _29  and  _30
REMARK   13  A    between atoms: _29  and  _32
REMARK   14  A    between atoms: _32  and  _33
REMARK   15  A    between atoms: _36  and  _38
REMARK   16  A    between atoms: _38  and  _39
REMARK   17  A    between atoms: _38  and  _41
REMARK   18  A    between atoms: _41  and  _42
REMARK   19  A    between atoms: _45  and  _47
REMARK   20  A    between atoms: _47  and  _48
REMARK   21  A    between atoms: _47  and  _50
REMARK   22  A    between atoms: _50  and  _51
REMARK   23  A    between atoms: _54  and  _56
REMARK   24  A    between atoms: _56  and  _57
REMARK   25  A    between atoms: _59  and  _61
REMARK   26  A    between atoms: _61  and  _62
REMARK   27  A    between atoms: _65  and  _67
REMARK   28  A    between atoms: _67  and  _68
REMARK   29  A    between atoms: _67  and  _70
REMARK   30  A    between atoms: _70  and  _71
REMARK   31  A    between atoms: _74  and  _76
REMARK   32  A    between atoms: _76  and  _77
REMARK   33  A    between atoms: _76  and  _79
REMARK   34  A    between atoms: _79  and  _80
REMARK   35  A    between atoms: _85  and  _87
REMARK   36  A    between atoms: _87  and  _88
REMARK   37  A    between atoms: _87  and  _90
REMARK   38  A    between atoms: _90  and  _91
REMARK   39  A    between atoms: _94  and  _96
REMARK   40  A    between atoms: _96  and  _97
REMARK   41  A    between atoms: _96  and  _99
REMARK   42  A    between atoms: _102  and  _104
REMARK   43  A    between atoms: _104  and  _105
REMARK   44  A    between atoms: _104  and  _107
REMARK   45  A    between atoms: _107  and  _108
REMARK   46  A    between atoms: _111  and  _113
REMARK   47  A    between atoms: _113  and  _114
REMARK   48  A    between atoms: _113  and  _116
REMARK   49  A    between atoms: _117  and  _118
REMARK   50  A    between atoms: _118  and  _119
REMARK   51  A    between atoms: _119  and  _120
REMARK   52  A    between atoms: _124  and  _126
REMARK   53  A    between atoms: _126  and  _127
REMARK   54  A    between atoms: _126  and  _129
REMARK   55  A    between atoms: _129  and  _130
REMARK   56  A    between atoms: _130  and  _131
REMARK   57  A    between atoms: _133  and  _135
REMARK   58  A    between atoms: _135  and  _136
REMARK   59  A    between atoms: _135  and  _138
REMARK   60  A    between atoms: _138  and  _139
REMARK   61  A    between atoms: _142  and  _144
REMARK   62  A    between atoms: _144  and  _145
REMARK   63  A    between atoms: _147  and  _149
REMARK   64  A    between atoms: _149  and  _150
REMARK   65  A    between atoms: _152  and  _154
REMARK   66  A    between atoms: _154  and  _155
REMARK   67  A    between atoms: _154  and  _157
REMARK   68  A    between atoms: _157  and  _158
REMARK   69  A    between atoms: _161  and  _163
REMARK   70  A    between atoms: _163  and  _164
REMARK   71  A    between atoms: _166  and  _168
REMARK   72  A    between atoms: _168  and  _169
REMARK   73  A    between atoms: _171  and  _173
REMARK   74  A    between atoms: _173  and  _174
REMARK   75  A    between atoms: _173  and  _176
REMARK   76  A    between atoms: _176  and  _177
REMARK   77  A    between atoms: _183  and  _185
REMARK   78  A    between atoms: _185  and  _186
REMARK   79  A    between atoms: _185  and  _188
REMARK   80  A    between atoms: _188  and  _189
REMARK   81  A    between atoms: _192  and  _194
REMARK   82  A    between atoms: _194  and  _195
REMARK   83  A    between atoms: _194  and  _197
REMARK   84  A    between atoms: _200  and  _202
REMARK   85  A    between atoms: _202  and  _203
REMARK   86  A    between atoms: _202  and  _205
REMARK   87  A    between atoms: _205  and  _206
REMARK   88  A    between atoms: _209  and  _211
REMARK   89  A    between atoms: _211  and  _212
REMARK   90  A    between atoms: _211  and  _214
REMARK   91  A    between atoms: _214  and  _215
REMARK   92  A    between atoms: _219  and  _220
REMARK   93  A    between atoms: _225  and  _227
REMARK   94  A    between atoms: _227  and  _228
REMARK   95  A    between atoms: _227  and  _230
REMARK   96  A    between atoms: _233  and  _235
REMARK   97  A    between atoms: _235  and  _236
REMARK   98  A    between atoms: _235  and  _238
REMARK   99  A    between atoms: _238  and  _239
REMARK  100  A    between atoms: _244  and  _246
REMARK  101  A    between atoms: _246  and  _247
REMARK  102  A    between atoms: _246  and  _249
REMARK  103  A    between atoms: _249  and  _250
REMARK  104  A    between atoms: _253  and  _255
REMARK  105  A    between atoms: _255  and  _256
REMARK  106  A    between atoms: _255  and  _258
REMARK  107  A    between atoms: _258  and  _259
REMARK  108  A    between atoms: _262  and  _264
REMARK  109  A    between atoms: _264  and  _265
REMARK  110  A    between atoms: _267  and  _269
REMARK  111  A    between atoms: _269  and  _270
REMARK  112  A    between atoms: _269  and  _272
REMARK  113  A    between atoms: _272  and  _273
REMARK  114  A    between atoms: _273  and  _274
REMARK  115  A    between atoms: _274  and  _275
REMARK  116  A    between atoms: _284  and  _286
REMARK  117  A    between atoms: _286  and  _287
REMARK  118  A    between atoms: _286  and  _289
REMARK  119  A    between atoms: _289  and  _290
REMARK  120  A    between atoms: _295  and  _297
REMARK  121  A    between atoms: _297  and  _298
REMARK  122  A    between atoms: _297  and  _300
REMARK  123  A    between atoms: _300  and  _301
REMARK  124  A    between atoms: _301  and  _302
REMARK  125  A    between atoms: _302  and  _303
REMARK  126  A    between atoms: _312  and  _314
REMARK  127  A    between atoms: _314  and  _315
REMARK  128  A    between atoms: _314  and  _317
REMARK  129  A    between atoms: _317  and  _318
REMARK  130  A    between atoms: _321  and  _323
REMARK  131  A    between atoms: _323  and  _324
REMARK  132  A    between atoms: _323  and  _326
REMARK  133  A    between atoms: _326  and  _327
REMARK  134  A    between atoms: _330  and  _332
REMARK  135  A    between atoms: _332  and  _333
REMARK  136  A    between atoms: _332  and  _335
REMARK  137  A    between atoms: _335  and  _336
REMARK  138  A    between atoms: _339  and  _341
REMARK  139  A    between atoms: _341  and  _342
REMARK  140  A    between atoms: _341  and  _344
REMARK  141  A    between atoms: _344  and  _345
REMARK  142  A    between atoms: _348  and  _350
REMARK  143  A    between atoms: _350  and  _351
REMARK  144  A    between atoms: _353  and  _355
REMARK  145  A    between atoms: _355  and  _356
REMARK  146  A    between atoms: _359  and  _361
REMARK  147  A    between atoms: _361  and  _362
REMARK  148  A    between atoms: _361  and  _364
REMARK  149  A    between atoms: _364  and  _365
REMARK  150  A    between atoms: _368  and  _370
REMARK  151  A    between atoms: _370  and  _371
REMARK  152  A    between atoms: _370  and  _373
REMARK  153  A    between atoms: _373  and  _374
REMARK  154  A    between atoms: _379  and  _381
REMARK  155  A    between atoms: _381  and  _382
REMARK  156  A    between atoms: _381  and  _384
REMARK  157  A    between atoms: _384  and  _385
REMARK  158  A    between atoms: _388  and  _390
REMARK  159  A    between atoms: _390  and  _391
REMARK  160  A    between atoms: _390  and  _393
REMARK  161  A    between atoms: _396  and  _398
REMARK  162  A    between atoms: _398  and  _399
REMARK  163  A    between atoms: _398  and  _401
REMARK  164  A    between atoms: _401  and  _402
REMARK  165  A    between atoms: _402  and  _403
REMARK  166  A    between atoms: _403  and  _404
REMARK  167  A    between atoms: _404  and  _405
REMARK  168  A    between atoms: _409  and  _411
REMARK  169  A    between atoms: _411  and  _412
REMARK  170  A    between atoms: _411  and  _414
REMARK  171  A    between atoms: _414  and  _415
REMARK  172  A    between atoms: _415  and  _416
REMARK  173  A    between atoms: _418  and  _420
REMARK  174  A    between atoms: _420  and  _421
REMARK  175  A    between atoms: _420  and  _423
REMARK  176  A    between atoms: _423  and  _424
REMARK  177  A    between atoms: _427  and  _429
REMARK  178  A    between atoms: _429  and  _430
REMARK  179  A    between atoms: _432  and  _434
REMARK  180  A    between atoms: _434  and  _435
REMARK  181  A    between atoms: _437  and  _439
REMARK  182  A    between atoms: _439  and  _440
REMARK  183  A    between atoms: _439  and  _442
REMARK  184  A    between atoms: _442  and  _443
REMARK  185  A    between atoms: _446  and  _448
REMARK  186  A    between atoms: _448  and  _449
REMARK  187  A    between atoms: _451  and  _453
REMARK  188  A    between atoms: _453  and  _454
REMARK  189  A    between atoms: _456  and  _458
REMARK  190  A    between atoms: _458  and  _459
REMARK  191  A    between atoms: _458  and  _461
REMARK  192  A    between atoms: _461  and  _462
REMARK  193  A    between atoms: _468  and  _470
REMARK  194  A    between atoms: _470  and  _471
REMARK  195  A    between atoms: _470  and  _473
REMARK  196  A    between atoms: _473  and  _474
REMARK  197  A    between atoms: _477  and  _479
REMARK  198  A    between atoms: _479  and  _480
REMARK  199  A    between atoms: _479  and  _482
REMARK  200  A    between atoms: _485  and  _487
REMARK  201  A    between atoms: _487  and  _488
REMARK  202  A    between atoms: _487  and  _490
REMARK  203  A    between atoms: _490  and  _491
REMARK  204  A    between atoms: _494  and  _496
REMARK  205  A    between atoms: _496  and  _497
REMARK  206  A    between atoms: _496  and  _499
REMARK  207  A    between atoms: _499  and  _500
REMARK  208  A    between atoms: _504  and  _505
REMARK  209  A    between atoms: _510  and  _512
REMARK  210  A    between atoms: _512  and  _513
REMARK  211  A    between atoms: _512  and  _515
REMARK  212  A    between atoms: _518  and  _520
REMARK  213  A    between atoms: _520  and  _521
REMARK  214  A    between atoms: _520  and  _523
REMARK  215  A    between atoms: _523  and  _524
REMARK  216  A    between atoms: _529  and  _531
REMARK  217  A    between atoms: _531  and  _532
REMARK  218  A    between atoms: _531  and  _534
REMARK  219  A    between atoms: _534  and  _535
REMARK  220  A    between atoms: _538  and  _540
REMARK  221  A    between atoms: _540  and  _541
REMARK  222  A    between atoms: _540  and  _543
REMARK  223  A    between atoms: _543  and  _544
REMARK  224  A    between atoms: _547  and  _549
REMARK  225  A    between atoms: _549  and  _550
REMARK  226  A    between atoms: _552  and  _554
REMARK  227  A    between atoms: _554  and  _555
REMARK  228  A    between atoms: _554  and  _557
REMARK  229  A    between atoms: _557  and  _558
REMARK  230  A    between atoms: _558  and  _559
REMARK  231  A    between atoms: _559  and  _560
REMARK  232  A    between atoms: _569  and  _571
REMARK  233  A    between atoms: _571  and  _572
REMARK  234  A    between atoms: _571  and  _574
REMARK  235  A    between atoms: _574  and  _575
REMARK                            x       y       z     vdW  Elec       q    Type
REMARK                         _______ _______ _______ _____ _____    ______ ____
ROOT
ATOM      1  CA  LEU A   1      21.446  30.613   6.725  0.00  0.00    +0.133 C 
ENDROOT
BRANCH   1   2
ATOM      2  N   LEU A   1      20.715  31.825   7.060  0.00  0.00    -0.239 NA
ATOM      3  H   LEU A   1      20.069  31.808   7.875  0.00  0.00    +0.142 HD
ENDBRANCH   1   2
BRANCH   1   4
ATOM      4  C   LEU A   1      20.567  29.739   5.844  0.00  0.00    +0.224 C 
ATOM      5  O   LEU A   1      19.380  29.611   6.137  0.00  0.00    -0.287 OA
ENDBRANCH   1   4
BRANCH   1   6
ATOM      6  CB  LEU A   1      21.832  29.888   8.000  0.00  0.00    +0.025 C 
BRANCH   6   7
ATOM      7  CG  LEU A   1      22.572  30.741   9.068  0.00  0.00    +0.002 C 
ATOM      8  CD2 LEU A   1      22.878  29.914  10.317  0.00  0.00    +0.000 C 
ATOM      9  CD1 LEU A   1      23.810  31.377   8.475  0.00  0.00    +0.000 C 
ENDBRANCH   6   7
ENDBRANCH   1   6
TORSDOF 4
REMARK  Name = ../refined-set-2016/2f80/2f80_pocket.pdb
REMARK  235 active torsions:
REMARK  status: ('A' for Active; 'I' for Inactive)
REMARK    1  A    between atoms: _1  and  _3
REMARK    2  A    between atoms: _3  and  _4
REMARK    3  A    between atoms: _3  and  _6
REMARK    4  A    between atoms: _6  and  _7
REMARK    5  A    between atoms: _7  and  _8
REMARK    6  A    between atoms: _8  and  _9
REMARK    7  A    between atoms: _18  and  _20
REMARK    8  A    between atoms: _20  and  _21
REMARK    9  A    between atoms: _20  and  _23
REMARK   10  A    between atoms: _23  and  _24
REMARK   11  A    between atoms: _27  and  _29
REMARK   12  A    between atoms: _29  and  _30
REMARK   13  A    between atoms: _29  and  _32
REMARK   14  A    between atoms: _32  and  _33
REMARK   15  A    between atoms: _36  and  _38
REMARK   16  A    between atoms: _38  and  _39
REMARK   17  A    between atoms: _38  and  _41
REMARK   18  A    between atoms: _41  and  _42
REMARK   19  A    between atoms: _45  and  _47
REMARK   20  A    between atoms: _47  and  _48
REMARK   21  A    between atoms: _47  and  _50
REMARK   22  A    between atoms: _50  and  _51
REMARK   23  A    between atoms: _54  and  _56
REMARK   24  A    between atoms: _56  and  _57
REMARK   25  A    between atoms: _59  and  _61
REMARK   26  A    between atoms: _61  and  _62
REMARK   27  A    between atoms: _65  and  _67
REMARK   28  A    between atoms: _67  and  _68
REMARK   29  A    between atoms: _67  and  _70
REMARK   30  A    between atoms: _70  and  _71
REMARK   31  A    between atoms: _74  and  _76
REMARK   32  A    between atoms: _76  and  _77
REMARK   33  A    between atoms: _76  and  _79
REMARK   34  A    between atoms: _79  and  _80
REMARK   35  A    between atoms: _85  and  _87
REMARK   36  A    between atoms: _87  and  _88
REMARK   37  A    between atoms: _87  and  _90
REMARK   38  A    between atoms: _90  and  _91
REMARK   39  A    between atoms: _94  and  _96
REMARK   40  A    between atoms: _96  and  _97
REMARK   41  A    between atoms: _96  and  _99
REMARK   42  A    between atoms: _102  and  _104
REMARK   43  A    between atoms: _104  and  _105
REMARK   44  A    between atoms: _104  and  _107
REMARK   45  A    between atoms: _107  and  _108
REMARK   46  A    between atoms: _111  and  _113
REMARK   47  A    between atoms: _113  and  _114
REMARK   48  A    between atoms: _113  and  _116
REMARK   49  A    between atoms: _117  and  _118
REMARK   50  A    between atoms: _118  and  _119
REMARK   51  A    between atoms: _119  and  _120
REMARK   52  A    between atoms: _124  and  _126
REMARK   53  A    between atoms: _126  and  _127
REMARK   54  A    between atoms: _126  and  _129
REMARK   55  A    between atoms: _129  and  _130
REMARK   56  A    between atoms: _130  and  _131
REMARK   57  A    between atoms: _133  and  _135
REMARK   58  A    between atoms: _135  and  _136
REMARK   59  A    between atoms: _135  and  _138
REMARK   60  A    between atoms: _138  and  _139
REMARK   61  A    between atoms: _142  and  _144
REMARK   62  A    between atoms: _144  and  _145
REMARK   63  A    between atoms: _147  and  _149
REMARK   64  A    between atoms: _149  and  _150
REMARK   65  A    between atoms: _152  and  _154
REMARK   66  A    between atoms: _154  and  _155
REMARK   67  A    between atoms: _154  and  _157
REMARK   68  A    between atoms: _157  and  _158
REMARK   69  A    between atoms: _161  and  _163
REMARK   70  A    between atoms: _163  and  _164
REMARK   71  A    between atoms: _166  and  _168
REMARK   72  A    between atoms: _168  and  _169
REMARK   73  A    between atoms: _171  and  _173
REMARK   74  A    between atoms: _173  and  _174
REMARK   75  A    between atoms: _173  and  _176
REMARK   76  A    between atoms: _176  and  _177
REMARK   77  A    between atoms: _183  and  _185
REMARK   78  A    between atoms: _185  and  _186
REMARK   79  A    between atoms: _185  and  _188
REMARK   80  A    between atoms: _188  and  _189
REMARK   81  A    between atoms: _192  and  _194
REMARK   82  A    between atoms: _194  and  _195
REMARK   83  A    between atoms: _194  and  _197
REMARK   84  A    between atoms: _200  and  _202
REMARK   85  A    between atoms: _202  and  _203
REMARK   86  A    between atoms: _202  and  _205
REMARK   87  A    between atoms: _205  and  _206
REMARK   88  A    between atoms: _209  and  _211
REMARK   89  A    between atoms: _211  and  _212
REMARK   90  A    between atoms: _211  and  _214
REMARK   91  A    between atoms: _214  and  _215
REMARK   92  A    between atoms: _219  and  _220
REMARK   93  A    between atoms: _225  and  _227
REMARK   94  A    between atoms: _227  and  _228
REMARK   95  A    between atoms: _227  and  _230
REMARK   96  A    between atoms: _233  and  _235
REMARK   97  A    between atoms: _235  and  _236
REMARK   98  A    between atoms: _235  and  _238
REMARK   99  A    between atoms: _238  and  _239
REMARK  100  A    between atoms: _244  and  _246
REMARK  101  A    between atoms: _246  and  _247
REMARK  102  A    between atoms: _246  and  _249
REMARK  103  A    between atoms: _249  and  _250
REMARK  104  A    between atoms: _253  and  _255
REMARK  105  A    between atoms: _255  and  _256
REMARK  106  A    between atoms: _255  and  _258
REMARK  107  A    between atoms: _258  and  _259
REMARK  108  A    between atoms: _262  and  _264
REMARK  109  A    between atoms: _264  and  _265
REMARK  110  A    between atoms: _267  and  _269
REMARK  111  A    between atoms: _269  and  _270
REMARK  112  A    between atoms: _269  and  _272
REMARK  113  A    between atoms: _272  and  _273
REMARK  114  A    between atoms: _273  and  _274
REMARK  115  A    between atoms: _274  and  _275
REMARK  116  A    between atoms: _284  and  _286
REMARK  117  A    between atoms: _286  and  _287
REMARK  118  A    between atoms: _286  and  _289
REMARK  119  A    between atoms: _289  and  _290
REMARK  120  A    between atoms: _295  and  _297
REMARK  121  A    between atoms: _297  and  _298
REMARK  122  A    between atoms: _297  and  _300
REMARK  123  A    between atoms: _300  and  _301
REMARK  124  A    between atoms: _301  and  _302
REMARK  125  A    between atoms: _302  and  _303
REMARK  126  A    between atoms: _312  and  _314
REMARK  127  A    between atoms: _314  and  _315
REMARK  128  A    between atoms: _314  and  _317
REMARK  129  A    between atoms: _317  and  _318
REMARK  130  A    between atoms: _321  and  _323
REMARK  131  A    between atoms: _323  and  _324
REMARK  132  A    between atoms: _323  and  _326
REMARK  133  A    between atoms: _326  and  _327
REMARK  134  A    between atoms: _330  and  _332
REMARK  135  A    between atoms: _332  and  _333
REMARK  136  A    between atoms: _332  and  _335
REMARK  137  A    between atoms: _335  and  _336
REMARK  138  A    between atoms: _339  and  _341
REMARK  139  A    between atoms: _341  and  _342
REMARK  140  A    between atoms: _341  and  _344
REMARK  141  A    between atoms: _344  and  _345
REMARK  142  A    between atoms: _348  and  _350
REMARK  143  A    between atoms: _350  and  _351
REMARK  144  A    between atoms: _353  and  _355
REMARK  145  A    between atoms: _355  and  _356
REMARK  146  A    between atoms: _359  and  _361
REMARK  147  A    between atoms: _361  and  _362
REMARK  148  A    between atoms: _361  and  _364
REMARK  149  A    between atoms: _364  and  _365
REMARK  150  A    between atoms: _368  and  _370
REMARK  151  A    between atoms: _370  and  _371
REMARK  152  A    between atoms: _370  and  _373
REMARK  153  A    between atoms: _373  and  _374
REMARK  154  A    between atoms: _379  and  _381
REMARK  155  A    between atoms: _381  and  _382
REMARK  156  A    between atoms: _381  and  _384
REMARK  157  A    between atoms: _384  and  _385
REMARK  158  A    between atoms: _388  and  _390
REMARK  159  A    between atoms: _390  and  _391
REMARK  160  A    between atoms: _390  and  _393
REMARK  161  A    between atoms: _396  and  _398
REMARK  162  A    between atoms: _398  and  _399
REMARK  163  A    between atoms: _398  and  _401
REMARK  164  A    between atoms: _401  and  _402
REMARK  165  A    between atoms: _402  and  _403
REMARK  166  A    between atoms: _403  and  _404
REMARK  167  A    between atoms: _404  and  _405
REMARK  168  A    between atoms: _409  and  _411
REMARK  169  A    between atoms: _411  and  _412
REMARK  170  A    between atoms: _411  and  _414
REMARK  171  A    between atoms: _414  and  _415
REMARK  172  A    between atoms: _415  and  _416
REMARK  173  A    between atoms: _418  and  _420
REMARK  174  A    between atoms: _420  and  _421
REMARK  175  A    between atoms: _420  and  _423
REMARK  176  A    between atoms: _423  and  _424
REMARK  177  A    between atoms: _427  and  _429
REMARK  178  A    between atoms: _429  and  _430
REMARK  179  A    between atoms: _432  and  _434
REMARK  180  A    between atoms: _434  and  _435
REMARK  181  A    between atoms: _437  and  _439
REMARK  182  A    between atoms: _439  and  _440
REMARK  183  A    between atoms: _439  and  _442
REMARK  184  A    between atoms: _442  and  _443
REMARK  185  A    between atoms: _446  and  _448
REMARK  186  A    between atoms: _448  and  _449
REMARK  187  A    between atoms: _451  and  _453
REMARK  188  A    between atoms: _453  and  _454
REMARK  189  A    between atoms: _456  and  _458
REMARK  190  A    between atoms: _458  and  _459
REMARK  191  A    between atoms: _458  and  _461
REMARK  192  A    between atoms: _461  and  _462
REMARK  193  A    between atoms: _468  and  _470
REMARK  194  A    between atoms: _470  and  _471
REMARK  195  A    between atoms: _470  and  _473
REMARK  196  A    between atoms: _473  and  _474
REMARK  197  A    between atoms: _477  and  _479
REMARK  198  A    between atoms: _479  and  _480
REMARK  199  A    between atoms: _479  and  _482
REMARK  200  A    between atoms: _485  and  _487
REMARK  201  A    between atoms: _487  and  _488
REMARK  202  A    between atoms: _487  and  _490
REMARK  203  A    between atoms: _490  and  _491
REMARK  204  A    between atoms: _494  and  _496
REMARK  205  A    between atoms: _496  and  _497
REMARK  206  A    between atoms: _496  and  _499
REMARK  207  A    between atoms: _499  and  _500
REMARK  208  A    between atoms: _504  and  _505
REMARK  209  A    between atoms: _510  and  _512
REMARK  210  A    between atoms: _512  and  _513
REMARK  211  A    between atoms: _512  and  _515
REMARK  212  A    between atoms: _518  and  _520
REMARK  213  A    between atoms: _520  and  _521
REMARK  214  A    between atoms: _520  and  _523
REMARK  215  A    between atoms: _523  and  _524
REMARK  216  A    between atoms: _529  and  _531
REMARK  217  A    between atoms: _531  and  _532
REMARK  218  A    between atoms: _531  and  _534
REMARK  219  A    between atoms: _534  and  _535
REMARK  220  A    between atoms: _538  and  _540
REMARK  221  A    between atoms: _540  and  _541
REMARK  222  A    between atoms: _540  and  _543
REMARK  223  A    between atoms: _543  and  _544
REMARK  224  A    between atoms: _547  and  _549
REMARK  225  A    between atoms: _549  and  _550
REMARK  226  A    between atoms: _552  and  _554
REMARK  227  A    between atoms: _554  and  _555
REMARK  228  A    between atoms: _554  and  _557
REMARK  229  A    between atoms: _557  and  _558
REMARK  230  A    between atoms: _558  and  _559
REMARK  231  A    between atoms: _559  and  _560
REMARK  232  A    between atoms: _569  and  _571
REMARK  233  A    between atoms: _571  and  _572
REMARK  234  A    between atoms: _571  and  _574
REMARK  235  A    between atoms: _574  and  _575
REMARK                            x       y       z     vdW  Elec       q    Type
REMARK                         _______ _______ _______ _____ _____    ______ ____
ROOT
ATOM      1  C   ILE A   5      13.605  29.852  11.338  0.00  0.00    +0.241 C 
ATOM      2  N   ILE A   6      12.746  30.633  12.008  0.00  0.00    -0.297 N 
ATOM      3  H   ILE A   6      11.839  30.241  12.331  0.00  0.00    +0.150 HD
ATOM      4  O   ILE A   5      14.619  30.273  10.775  0.00  0.00    -0.273 OA
ENDROOT
BRANCH   2   5
ATOM      5  CA  ILE A   6      13.068  32.015  12.286  0.00  0.00    +0.149 C 
BRANCH   5   6
ATOM      6  C   ILE A   6      13.687  32.059  13.679  0.00  0.00    +0.241 C 
ATOM      7  O   ILE A   6      13.040  31.749  14.668  0.00  0.00    -0.273 OA
ATOM      8  N   GLY A   7      14.981  32.423  13.708  0.00  0.00    -0.295 N 
ATOM      9  H   GLY A   7      15.464  32.688  12.826  0.00  0.00    +0.150 HD
BRANCH   8  10
ATOM     10  CA  GLY A   7      15.712  32.448  14.972  0.00  0.00    +0.176 C 
BRANCH  10  11
ATOM     11  C   GLY A   7      15.772  33.825  15.592  0.00  0.00    +0.243 C 
ATOM     12  N   ARG A   8      16.477  33.900  16.729  0.00  0.00    -0.297 N 
ATOM     13  H   ARG A   8      17.036  33.083  17.047  0.00  0.00    +0.150 HD
ATOM     14  O   GLY A   7      15.200  34.803  15.097  0.00  0.00    -0.273 OA
BRANCH  12  15
ATOM     15  CA  ARG A   8      16.463  35.114  17.517  0.00  0.00    +0.149 C 
BRANCH  15  16
ATOM     16  C   ARG A   8      16.991  36.309  16.753  0.00  0.00    +0.241 C 
ATOM     17  O   ARG A   8      16.543  37.419  17.028  0.00  0.00    -0.273 OA
ATOM     18  N   ASN A   9      17.928  36.103  15.827  0.00  0.00    -0.298 N 
ATOM     19  H   ASN A   9      18.257  35.139  15.615  0.00  0.00    +0.150 HD
BRANCH  18  20
ATOM     20  CA  ASN A   9      18.488  37.254  15.112  0.00  0.00    +0.146 C 
BRANCH  20  21
ATOM     21  C   ASN A   9      17.418  38.081  14.391  0.00  0.00    +0.227 C 
ATOM     22  O   ASN A   9      17.616  39.285  14.207  0.00  0.00    -0.286 OA
ENDBRANCH  20  21
BRANCH  20  23
ATOM     23  CB  ASN A   9      19.556  36.863  14.108  0.00  0.00    +0.112 C 
BRANCH  23  24
ATOM     24  CG  ASN A   9      19.072  36.150  12.865  0.00  0.00    +0.222 C 
ATOM     25  OD1 ASN A   9      18.309  35.168  12.959  0.00  0.00    -0.275 OA
ATOM     26  ND2 ASN A   9      19.510  36.689  11.739  0.00  0.00    -0.329 N 
ATOM     27 HD21 ASN A   9      20.147  37.511  11.769  0.00  0.00    +0.145 HD
ATOM     28 HD22 ASN A   9      19.218  36.291  10.824  0.00  0.00    +0.145 HD
ENDBRANCH  23  24
ENDBRANCH  20  23
ENDBRANCH  18  20
ENDBRANCH  15  16
BRANCH  15  29
ATOM     29  CB  ARG A   8      17.258  34.896  18.793  0.00  0.00    +0.033 C 
BRANCH  29  30
ATOM     30  CG  ARG A   8      16.634  33.887  19.748  0.00  0.00    +0.045 C 
BRANCH  30  31
ATOM     31  CD  ARG A   8      17.361  33.847  21.100  0.00  0.00    +0.174 C 
BRANCH  31  32
ATOM     32  NE  ARG A   8      18.756  33.401  20.947  0.00  0.00    -0.265 N 
ATOM     33  CZ  ARG A   8      19.861  34.140  20.906  0.00  0.00    +0.342 C 
ATOM     34  NH2 ARG A   8      19.818  35.472  21.049  0.00  0.00    -0.292 N 
ATOM     35 HH21 ARG A   8      18.906  35.950  21.196  0.00  0.00    +0.255 HD
ATOM     36 HH22 ARG A   8      20.696  36.027  21.013  0.00  0.00    +0.255 HD
ATOM     37  NH1 ARG A   8      21.058  33.621  20.741  0.00  0.00    -0.292 N 
ATOM     38 HH11 ARG A   8      21.894  34.239  20.715  0.00  0.00    +0.255 HD
ATOM     39 HH12 ARG A   8      21.169  32.592  20.636  0.00  0.00    +0.255 HD
ATOM     40  HE  ARG A   8      18.895  32.374  20.860  0.00  0.00    +0.259 HD
ENDBRANCH  31  32
ENDBRANCH  30  31
ENDBRANCH  29  30
ENDBRANCH  15  29
ENDBRANCH  12  15
ENDBRANCH  10  11
ENDBRANCH   8  10
ENDBRANCH   5   6
BRANCH   5  41
ATOM     41  CB  ILE A   6      11.865  32.959  12.231  0.00  0.00    +0.027 C 
ATOM     42  CG2 ILE A   6      12.280  34.396  12.514  0.00  0.00    +0.002 C 
BRANCH  41  43
ATOM     43  CG1 ILE A   6      11.078  32.931  10.914  0.00  0.00    +0.002 C 
ATOM     44  CD1 ILE A   6      11.941  33.251   9.697  0.00  0.00    +0.000 C 
ENDBRANCH  41  43
ENDBRANCH   5  41
ENDBRANCH   2   5
BRANCH   1  45
ATOM     45  CA  ILE A   5      13.242  28.370  11.315  0.00  0.00    +0.149 C 
BRANCH  45  48
ATOM     46  C   ASN A   4      12.162  27.222   9.463  0.00  0.00    +0.241 C 
ATOM     47  O   ASN A   4      11.077  27.114  10.049  0.00  0.00    -0.273 OA
ATOM     48  N   ILE A   5      13.204  27.831   9.980  0.00  0.00    -0.297 N 
ATOM     49  H   ILE A   5      14.054  27.930   9.389  0.00  0.00    +0.150 HD
BRANCH  46  50
ATOM     50  CA  ASN A   4      12.332  26.671   8.047  0.00  0.00    +0.158 C 
BRANCH  50  53
ATOM     51  C   VAL A   3      12.696  24.365   8.640  0.00  0.00    +0.241 C 
ATOM     52  O   VAL A   3      13.813  24.584   9.051  0.00  0.00    -0.273 OA
ATOM     53  N   ASN A   4      11.921  25.284   8.068  0.00  0.00    -0.297 N 
ATOM     54  H   ASN A   4      11.018  25.004   7.635  0.00  0.00    +0.150 HD
BRANCH  51  55
ATOM     55  CA  VAL A   3      12.080  22.981   8.743  0.00  0.00    +0.149 C 
BRANCH  55  57
ATOM     56  C   PRO A   2      12.976  20.810   8.097  0.00  0.00    +0.241 C 
ATOM     57  N   VAL A   3      13.154  21.984   8.667  0.00  0.00    -0.297 N 
ATOM     58  H   VAL A   3      14.083  22.211   9.075  0.00  0.00    +0.150 HD
ATOM     59  O   PRO A   2      11.912  20.420   7.617  0.00  0.00    -0.273 OA
BRANCH  56  65
ATOM     60  C   THR A   1      15.967  21.281   7.380  0.00  0.00    +0.244 C 
ATOM     61  N   PRO A   2      15.458  20.469   8.303  0.00  0.00    -0.272 N 
ATOM     62  CD  PRO A   2      16.072  20.023   9.544  0.00  0.00    +0.094 C 
ATOM     63  CG  PRO A   2      15.050  19.073  10.144  0.00  0.00    +0.024 C 
ATOM     64  CB  PRO A   2      14.004  18.786   9.142  0.00  0.00    +0.031 C 
ATOM     65  CA  PRO A   2      14.151  19.841   8.040  0.00  0.00    +0.152 C 
ATOM     66  O   THR A   1      15.423  21.461   6.264  0.00  0.00    -0.273 OA
BRANCH  60  67
ATOM     67  CA  THR A   1      17.265  22.011   7.641  0.00  0.00    +0.172 C 
BRANCH  67  68
ATOM     68  N   THR A   1      18.052  22.073   6.400  0.00  0.00    -0.236 NA
ATOM     69  H   THR A   1      18.077  22.952   5.846  0.00  0.00    +0.142 HD
ENDBRANCH  67  68
BRANCH  67  70
ATOM     70  CB  THR A   1      17.037  23.419   8.196  0.00  0.00    +0.135 C 
ATOM     71  CG2 THR A   1      16.400  24.395   7.219  0.00  0.00    +0.034 C 
BRANCH  70  72
ATOM     72  OG1 THR A   1      16.159  23.283   9.319  0.00  0.00    -0.383 OA
ATOM     73  HG1 THR A   1      15.305  22.879   9.022  0.00  0.00    +0.210 HD
ENDBRANCH  70  72
ENDBRANCH  67  70
ENDBRANCH  60  67
ENDBRANCH  56  65
ENDBRANCH  55  57
BRANCH  55  74
ATOM     74  CB  VAL A   3      11.249  22.880  10.032  0.00  0.00    +0.027 C 
ATOM     75  CG2 VAL A   3      12.255  22.715  11.142  0.00  0.00    +0.002 C 
ATOM     76  CG1 VAL A   3      10.297  24.045  10.263  0.00  0.00    +0.002 C 
ENDBRANCH  55  74
ENDBRANCH  51  55
ENDBRANCH  50  53
BRANCH  50  77
ATOM     77  CB  ASN A   4      11.468  27.463   7.087  0.00  0.00    +0.114 C 
BRANCH  77  78
ATOM     78  CG  ASN A   4      11.564  27.068   5.622  0.00  0.00    +0.222 C 
ATOM     79  OD1 ASN A   4      12.670  26.774   5.179  0.00  0.00    -0.275 OA
ATOM     80  ND2 ASN A   4      10.434  27.098   4.922  0.00  0.00    -0.329 N 
ATOM     81 HD21 ASN A   4       9.541  27.360   5.387  0.00  0.00    +0.145 HD
ATOM     82 HD22 ASN A   4      10.443  26.859   3.910  0.00  0.00    +0.145 HD
ENDBRANCH  77  78
ENDBRANCH  50  77
ENDBRANCH  46  50
ENDBRANCH  45  48
BRANCH  45  83
ATOM     83  CB  ILE A   5      14.287  27.605  12.150  0.00  0.00    +0.027 C 
ATOM     84  CG2 ILE A   5      14.532  28.320  13.458  0.00  0.00    +0.002 C 
BRANCH  83  85
ATOM     85  CG1 ILE A   5      13.938  26.133  12.354  0.00  0.00    +0.002 C 
ATOM     86  CD1 ILE A   5      15.226  25.394  12.752  0.00  0.00    +0.000 C 
ENDBRANCH  83  85
ENDBRANCH  45  83
ENDBRANCH   1  45
TORSDOF 32
REMARK  Name = ../refined-set-2016/2f80/2f80_pocket.pdb
REMARK  235 active torsions:
REMARK  status: ('A' for Active; 'I' for Inactive)
REMARK    1  A    between atoms: _1  and  _3
REMARK    2  A    between atoms: _3  and  _4
REMARK    3  A    between atoms: _3  and  _6
REMARK    4  A    between atoms: _6  and  _7
REMARK    5  A    between atoms: _7  and  _8
REMARK    6  A    between atoms: _8  and  _9
REMARK    7  A    between atoms: _18  and  _20
REMARK    8  A    between atoms: _20  and  _21
REMARK    9  A    between atoms: _20  and  _23
REMARK   10  A    between atoms: _23  and  _24
REMARK   11  A    between atoms: _27  and  _29
REMARK   12  A    between atoms: _29  and  _30
REMARK   13  A    between atoms: _29  and  _32
REMARK   14  A    between atoms: _32  and  _33
REMARK   15  A    between atoms: _36  and  _38
REMARK   16  A    between atoms: _38  and  _39
REMARK   17  A    between atoms: _38  and  _41
REMARK   18  A    between atoms: _41  and  _42
REMARK   19  A    between atoms: _45  and  _47
REMARK   20  A    between atoms: _47  and  _48
REMARK   21  A    between atoms: _47  and  _50
REMARK   22  A    between atoms: _50  and  _51
REMARK   23  A    between atoms: _54  and  _56
REMARK   24  A    between atoms: _56  and  _57
REMARK   25  A    between atoms: _59  and  _61
REMARK   26  A    between atoms: _61  and  _62
REMARK   27  A    between atoms: _65  and  _67
REMARK   28  A    between atoms: _67  and  _68
REMARK   29  A    between atoms: _67  and  _70
REMARK   30  A    between atoms: _70  and  _71
REMARK   31  A    between atoms: _74  and  _76
REMARK   32  A    between atoms: _76  and  _77
REMARK   33  A    between atoms: _76  and  _79
REMARK   34  A    between atoms: _79  and  _80
REMARK   35  A    between atoms: _85  and  _87
REMARK   36  A    between atoms: _87  and  _88
REMARK   37  A    between atoms: _87  and  _90
REMARK   38  A    between atoms: _90  and  _91
REMARK   39  A    between atoms: _94  and  _96
REMARK   40  A    between atoms: _96  and  _97
REMARK   41  A    between atoms: _96  and  _99
REMARK   42  A    between atoms: _102  and  _104
REMARK   43  A    between atoms: _104  and  _105
REMARK   44  A    between atoms: _104  and  _107
REMARK   45  A    between atoms: _107  and  _108
REMARK   46  A    between atoms: _111  and  _113
REMARK   47  A    between atoms: _113  and  _114
REMARK   48  A    between atoms: _113  and  _116
REMARK   49  A    between atoms: _117  and  _118
REMARK   50  A    between atoms: _118  and  _119
REMARK   51  A    between atoms: _119  and  _120
REMARK   52  A    between atoms: _124  and  _126
REMARK   53  A    between atoms: _126  and  _127
REMARK   54  A    between atoms: _126  and  _129
REMARK   55  A    between atoms: _129  and  _130
REMARK   56  A    between atoms: _130  and  _131
REMARK   57  A    between atoms: _133  and  _135
REMARK   58  A    between atoms: _135  and  _136
REMARK   59  A    between atoms: _135  and  _138
REMARK   60  A    between atoms: _138  and  _139
REMARK   61  A    between atoms: _142  and  _144
REMARK   62  A    between atoms: _144  and  _145
REMARK   63  A    between atoms: _147  and  _149
REMARK   64  A    between atoms: _149  and  _150
REMARK   65  A    between atoms: _152  and  _154
REMARK   66  A    between atoms: _154  and  _155
REMARK   67  A    between atoms: _154  and  _157
REMARK   68  A    between atoms: _157  and  _158
REMARK   69  A    between atoms: _161  and  _163
REMARK   70  A    between atoms: _163  and  _164
REMARK   71  A    between atoms: _166  and  _168
REMARK   72  A    between atoms: _168  and  _169
REMARK   73  A    between atoms: _171  and  _173
REMARK   74  A    between atoms: _173  and  _174
REMARK   75  A    between atoms: _173  and  _176
REMARK   76  A    between atoms: _176  and  _177
REMARK   77  A    between atoms: _183  and  _185
REMARK   78  A    between atoms: _185  and  _186
REMARK   79  A    between atoms: _185  and  _188
REMARK   80  A    between atoms: _188  and  _189
REMARK   81  A    between atoms: _192  and  _194
REMARK   82  A    between atoms: _194  and  _195
REMARK   83  A    between atoms: _194  and  _197
REMARK   84  A    between atoms: _200  and  _202
REMARK   85  A    between atoms: _202  and  _203
REMARK   86  A    between atoms: _202  and  _205
REMARK   87  A    between atoms: _205  and  _206
REMARK   88  A    between atoms: _209  and  _211
REMARK   89  A    between atoms: _211  and  _212
REMARK   90  A    between atoms: _211  and  _214
REMARK   91  A    between atoms: _214  and  _215
REMARK   92  A    between atoms: _219  and  _220
REMARK   93  A    between atoms: _225  and  _227
REMARK   94  A    between atoms: _227  and  _228
REMARK   95  A    between atoms: _227  and  _230
REMARK   96  A    between atoms: _233  and  _235
REMARK   97  A    between atoms: _235  and  _236
REMARK   98  A    between atoms: _235  and  _238
REMARK   99  A    between atoms: _238  and  _239
REMARK  100  A    between atoms: _244  and  _246
REMARK  101  A    between atoms: _246  and  _247
REMARK  102  A    between atoms: _246  and  _249
REMARK  103  A    between atoms: _249  and  _250
REMARK  104  A    between atoms: _253  and  _255
REMARK  105  A    between atoms: _255  and  _256
REMARK  106  A    between atoms: _255  and  _258
REMARK  107  A    between atoms: _258  and  _259
REMARK  108  A    between atoms: _262  and  _264
REMARK  109  A    between atoms: _264  and  _265
REMARK  110  A    between atoms: _267  and  _269
REMARK  111  A    between atoms: _269  and  _270
REMARK  112  A    between atoms: _269  and  _272
REMARK  113  A    between atoms: _272  and  _273
REMARK  114  A    between atoms: _273  and  _274
REMARK  115  A    between atoms: _274  and  _275
REMARK  116  A    between atoms: _284  and  _286
REMARK  117  A    between atoms: _286  and  _287
REMARK  118  A    between atoms: _286  and  _289
REMARK  119  A    between atoms: _289  and  _290
REMARK  120  A    between atoms: _295  and  _297
REMARK  121  A    between atoms: _297  and  _298
REMARK  122  A    between atoms: _297  and  _300
REMARK  123  A    between atoms: _300  and  _301
REMARK  124  A    between atoms: _301  and  _302
REMARK  125  A    between atoms: _302  and  _303
REMARK  126  A    between atoms: _312  and  _314
REMARK  127  A    between atoms: _314  and  _315
REMARK  128  A    between atoms: _314  and  _317
REMARK  129  A    between atoms: _317  and  _318
REMARK  130  A    between atoms: _321  and  _323
REMARK  131  A    between atoms: _323  and  _324
REMARK  132  A    between atoms: _323  and  _326
REMARK  133  A    between atoms: _326  and  _327
REMARK  134  A    between atoms: _330  and  _332
REMARK  135  A    between atoms: _332  and  _333
REMARK  136  A    between atoms: _332  and  _335
REMARK  137  A    between atoms: _335  and  _336
REMARK  138  A    between atoms: _339  and  _341
REMARK  139  A    between atoms: _341  and  _342
REMARK  140  A    between atoms: _341  and  _344
REMARK  141  A    between atoms: _344  and  _345
REMARK  142  A    between atoms: _348  and  _350
REMARK  143  A    between atoms: _350  and  _351
REMARK  144  A    between atoms: _353  and  _355
REMARK  145  A    between atoms: _355  and  _356
REMARK  146  A    between atoms: _359  and  _361
REMARK  147  A    between atoms: _361  and  _362
REMARK  148  A    between atoms: _361  and  _364
REMARK  149  A    between atoms: _364  and  _365
REMARK  150  A    between atoms: _368  and  _370
REMARK  151  A    between atoms: _370  and  _371
REMARK  152  A    between atoms: _370  and  _373
REMARK  153  A    between atoms: _373  and  _374
REMARK  154  A    between atoms: _379  and  _381
REMARK  155  A    between atoms: _381  and  _382
REMARK  156  A    between atoms: _381  and  _384
REMARK  157  A    between atoms: _384  and  _385
REMARK  158  A    between atoms: _388  and  _390
REMARK  159  A    between atoms: _390  and  _391
REMARK  160  A    between atoms: _390  and  _393
REMARK  161  A    between atoms: _396  and  _398
REMARK  162  A    between atoms: _398  and  _399
REMARK  163  A    between atoms: _398  and  _401
REMARK  164  A    between atoms: _401  and  _402
REMARK  165  A    between atoms: _402  and  _403
REMARK  166  A    between atoms: _403  and  _404
REMARK  167  A    between atoms: _404  and  _405
REMARK  168  A    between atoms: _409  and  _411
REMARK  169  A    between atoms: _411  and  _412
REMARK  170  A    between atoms: _411  and  _414
REMARK  171  A    between atoms: _414  and  _415
REMARK  172  A    between atoms: _415  and  _416
REMARK  173  A    between atoms: _418  and  _420
REMARK  174  A    between atoms: _420  and  _421
REMARK  175  A    between atoms: _420  and  _423
REMARK  176  A    between atoms: _423  and  _424
REMARK  177  A    between atoms: _427  and  _429
REMARK  178  A    between atoms: _429  and  _430
REMARK  179  A    between atoms: _432  and  _434
REMARK  180  A    between atoms: _434  and  _435
REMARK  181  A    between atoms: _437  and  _439
REMARK  182  A    between atoms: _439  and  _440
REMARK  183  A    between atoms: _439  and  _442
REMARK  184  A    between atoms: _442  and  _443
REMARK  185  A    between atoms: _446  and  _448
REMARK  186  A    between atoms: _448  and  _449
REMARK  187  A    between atoms: _451  and  _453
REMARK  188  A    between atoms: _453  and  _454
REMARK  189  A    between atoms: _456  and  _458
REMARK  190  A    between atoms: _458  and  _459
REMARK  191  A    between atoms: _458  and  _461
REMARK  192  A    between atoms: _461  and  _462
REMARK  193  A    between atoms: _468  and  _470
REMARK  194  A    between atoms: _470  and  _471
REMARK  195  A    between atoms: _470  and  _473
REMARK  196  A    between atoms: _473  and  _474
REMARK  197  A    between atoms: _477  and  _479
REMARK  198  A    between atoms: _479  and  _480
REMARK  199  A    between atoms: _479  and  _482
REMARK  200  A    between atoms: _485  and  _487
REMARK  201  A    between atoms: _487  and  _488
REMARK  202  A    between atoms: _487  and  _490
REMARK  203  A    between atoms: _490  and  _491
REMARK  204  A    between atoms: _494  and  _496
REMARK  205  A    between atoms: _496  and  _497
REMARK  206  A    between atoms: _496  and  _499
REMARK  207  A    between atoms: _499  and  _500
REMARK  208  A    between atoms: _504  and  _505
REMARK  209  A    between atoms: _510  and  _512
REMARK  210  A    between atoms: _512  and  _513
REMARK  211  A    between atoms: _512  and  _515
REMARK  212  A    between atoms: _518  and  _520
REMARK  213  A    between atoms: _520  and  _521
REMARK  214  A    between atoms: _520  and  _523
REMARK  215  A    between atoms: _523  and  _524
REMARK  216  A    between atoms: _529  and  _531
REMARK  217  A    between atoms: _531  and  _532
REMARK  218  A    between atoms: _531  and  _534
REMARK  219  A    between atoms: _534  and  _535
REMARK  220  A    between atoms: _538  and  _540
REMARK  221  A    between atoms: _540  and  _541
REMARK  222  A    between atoms: _540  and  _543
REMARK  223  A    between atoms: _543  and  _544
REMARK  224  A    between atoms: _547  and  _549
REMARK  225  A    between atoms: _549  and  _550
REMARK  226  A    between atoms: _552  and  _554
REMARK  227  A    between atoms: _554  and  _555
REMARK  228  A    between atoms: _554  and  _557
REMARK  229  A    between atoms: _557  and  _558
REMARK  230  A    between atoms: _558  and  _559
REMARK  231  A    between atoms: _559  and  _560
REMARK  232  A    between atoms: _569  and  _571
REMARK  233  A    between atoms: _571  and  _572
REMARK  234  A    between atoms: _571  and  _574
REMARK  235  A    between atoms: _574  and  _575
REMARK                            x       y       z     vdW  Elec       q    Type
REMARK                         _______ _______ _______ _____ _____    ______ ____
ROOT
ATOM      1  NE  ARG A   1      22.860  30.032  22.584  0.00  0.00    -0.265 N 
ATOM      2  CZ  ARG A   1      24.067  29.541  22.457  0.00  0.00    +0.342 C 
ATOM      3  NH2 ARG A   1      24.782  29.194  23.528  0.00  0.00    -0.292 N 
ATOM      4 HH21 ARG A   1      24.382  29.312  24.481  0.00  0.00    +0.255 HD
ATOM      5 HH22 ARG A   1      25.739  28.805  23.410  0.00  0.00    +0.255 HD
ATOM      6  NH1 ARG A   1      24.574  29.383  21.241  0.00  0.00    -0.292 N 
ATOM      7 HH11 ARG A   1      25.531  28.994  21.123  0.00  0.00    +0.255 HD
ATOM      8 HH12 ARG A   1      24.014  29.648  20.406  0.00  0.00    +0.255 HD
ATOM      9  HE  ARG A   1      22.365  30.272  21.702  0.00  0.00    +0.259 HD
ENDROOT
BRANCH   1  10
ATOM     10  CD  ARG A   1      22.128  30.281  23.828  0.00  0.00    +0.174 C 
BRANCH  10  11
ATOM     11  CG  ARG A   1      21.214  31.483  23.558  0.00  0.00    +0.045 C 
BRANCH  11  12
ATOM     12  CB  ARG A   1      20.430  31.877  24.789  0.00  0.00    +0.029 C 
BRANCH  12  13
ATOM     13  CA  ARG A   1      19.529  33.085  24.661  0.00  0.00    +0.133 C 
BRANCH  13  14
ATOM     14  N   ARG A   1      20.285  34.335  24.558  0.00  0.00    -0.239 NA
ATOM     15  H   ARG A   1      21.324  34.331  24.591  0.00  0.00    +0.142 HD
ENDBRANCH  13  14
BRANCH  13  16
ATOM     16  C   ARG A   1      18.601  33.109  25.870  0.00  0.00    +0.224 C 
ATOM     17  O   ARG A   1      19.062  33.592  26.919  0.00  0.00    -0.287 OA
ENDBRANCH  13  16
ENDBRANCH  12  13
ENDBRANCH  11  12
ENDBRANCH  10  11
ENDBRANCH   1  10
TORSDOF 6
REMARK  Name = ../refined-set-2016/2f80/2f80_pocket.pdb
REMARK  235 active torsions:
REMARK  status: ('A' for Active; 'I' for Inactive)
REMARK    1  A    between atoms: _1  and  _3
REMARK    2  A    between atoms: _3  and  _4
REMARK    3  A    between atoms: _3  and  _6
REMARK    4  A    between atoms: _6  and  _7
REMARK    5  A    between atoms: _7  and  _8
REMARK    6  A    between atoms: _8  and  _9
REMARK    7  A    between atoms: _18  and  _20
REMARK    8  A    between atoms: _20  and  _21
REMARK    9  A    between atoms: _20  and  _23
REMARK   10  A    between atoms: _23  and  _24
REMARK   11  A    between atoms: _27  and  _29
REMARK   12  A    between atoms: _29  and  _30
REMARK   13  A    between atoms: _29  and  _32
REMARK   14  A    between atoms: _32  and  _33
REMARK   15  A    between atoms: _36  and  _38
REMARK   16  A    between atoms: _38  and  _39
REMARK   17  A    between atoms: _38  and  _41
REMARK   18  A    between atoms: _41  and  _42
REMARK   19  A    between atoms: _45  and  _47
REMARK   20  A    between atoms: _47  and  _48
REMARK   21  A    between atoms: _47  and  _50
REMARK   22  A    between atoms: _50  and  _51
REMARK   23  A    between atoms: _54  and  _56
REMARK   24  A    between atoms: _56  and  _57
REMARK   25  A    between atoms: _59  and  _61
REMARK   26  A    between atoms: _61  and  _62
REMARK   27  A    between atoms: _65  and  _67
REMARK   28  A    between atoms: _67  and  _68
REMARK   29  A    between atoms: _67  and  _70
REMARK   30  A    between atoms: _70  and  _71
REMARK   31  A    between atoms: _74  and  _76
REMARK   32  A    between atoms: _76  and  _77
REMARK   33  A    between atoms: _76  and  _79
REMARK   34  A    between atoms: _79  and  _80
REMARK   35  A    between atoms: _85  and  _87
REMARK   36  A    between atoms: _87  and  _88
REMARK   37  A    between atoms: _87  and  _90
REMARK   38  A    between atoms: _90  and  _91
REMARK   39  A    between atoms: _94  and  _96
REMARK   40  A    between atoms: _96  and  _97
REMARK   41  A    between atoms: _96  and  _99
REMARK   42  A    between atoms: _102  and  _104
REMARK   43  A    between atoms: _104  and  _105
REMARK   44  A    between atoms: _104  and  _107
REMARK   45  A    between atoms: _107  and  _108
REMARK   46  A    between atoms: _111  and  _113
REMARK   47  A    between atoms: _113  and  _114
REMARK   48  A    between atoms: _113  and  _116
REMARK   49  A    between atoms: _117  and  _118
REMARK   50  A    between atoms: _118  and  _119
REMARK   51  A    between atoms: _119  and  _120
REMARK   52  A    between atoms: _124  and  _126
REMARK   53  A    between atoms: _126  and  _127
REMARK   54  A    between atoms: _126  and  _129
REMARK   55  A    between atoms: _129  and  _130
REMARK   56  A    between atoms: _130  and  _131
REMARK   57  A    between atoms: _133  and  _135
REMARK   58  A    between atoms: _135  and  _136
REMARK   59  A    between atoms: _135  and  _138
REMARK   60  A    between atoms: _138  and  _139
REMARK   61  A    between atoms: _142  and  _144
REMARK   62  A    between atoms: _144  and  _145
REMARK   63  A    between atoms: _147  and  _149
REMARK   64  A    between atoms: _149  and  _150
REMARK   65  A    between atoms: _152  and  _154
REMARK   66  A    between atoms: _154  and  _155
REMARK   67  A    between atoms: _154  and  _157
REMARK   68  A    between atoms: _157  and  _158
REMARK   69  A    between atoms: _161  and  _163
REMARK   70  A    between atoms: _163  and  _164
REMARK   71  A    between atoms: _166  and  _168
REMARK   72  A    between atoms: _168  and  _169
REMARK   73  A    between atoms: _171  and  _173
REMARK   74  A    between atoms: _173  and  _174
REMARK   75  A    between atoms: _173  and  _176
REMARK   76  A    between atoms: _176  and  _177
REMARK   77  A    between atoms: _183  and  _185
REMARK   78  A    between atoms: _185  and  _186
REMARK   79  A    between atoms: _185  and  _188
REMARK   80  A    between atoms: _188  and  _189
REMARK   81  A    between atoms: _192  and  _194
REMARK   82  A    between atoms: _194  and  _195
REMARK   83  A    between atoms: _194  and  _197
REMARK   84  A    between atoms: _200  and  _202
REMARK   85  A    between atoms: _202  and  _203
REMARK   86  A    between atoms: _202  and  _205
REMARK   87  A    between atoms: _205  and  _206
REMARK   88  A    between atoms: _209  and  _211
REMARK   89  A    between atoms: _211  and  _212
REMARK   90  A    between atoms: _211  and  _214
REMARK   91  A    between atoms: _214  and  _215
REMARK   92  A    between atoms: _219  and  _220
REMARK   93  A    between atoms: _225  and  _227
REMARK   94  A    between atoms: _227  and  _228
REMARK   95  A    between atoms: _227  and  _230
REMARK   96  A    between atoms: _233  and  _235
REMARK   97  A    between atoms: _235  and  _236
REMARK   98  A    between atoms: _235  and  _238
REMARK   99  A    between atoms: _238  and  _239
REMARK  100  A    between atoms: _244  and  _246
REMARK  101  A    between atoms: _246  and  _247
REMARK  102  A    between atoms: _246  and  _249
REMARK  103  A    between atoms: _249  and  _250
REMARK  104  A    between atoms: _253  and  _255
REMARK  105  A    between atoms: _255  and  _256
REMARK  106  A    between atoms: _255  and  _258
REMARK  107  A    between atoms: _258  and  _259
REMARK  108  A    between atoms: _262  and  _264
REMARK  109  A    between atoms: _264  and  _265
REMARK  110  A    between atoms: _267  and  _269
REMARK  111  A    between atoms: _269  and  _270
REMARK  112  A    between atoms: _269  and  _272
REMARK  113  A    between atoms: _272  and  _273
REMARK  114  A    between atoms: _273  and  _274
REMARK  115  A    between atoms: _274  and  _275
REMARK  116  A    between atoms: _284  and  _286
REMARK  117  A    between atoms: _286  and  _287
REMARK  118  A    between atoms: _286  and  _289
REMARK  119  A    between atoms: _289  and  _290
REMARK  120  A    between atoms: _295  and  _297
REMARK  121  A    between atoms: _297  and  _298
REMARK  122  A    between atoms: _297  and  _300
REMARK  123  A    between atoms: _300  and  _301
REMARK  124  A    between atoms: _301  and  _302
REMARK  125  A    between atoms: _302  and  _303
REMARK  126  A    between atoms: _312  and  _314
REMARK  127  A    between atoms: _314  and  _315
REMARK  128  A    between atoms: _314  and  _317
REMARK  129  A    between atoms: _317  and  _318
REMARK  130  A    between atoms: _321  and  _323
REMARK  131  A    between atoms: _323  and  _324
REMARK  132  A    between atoms: _323  and  _326
REMARK  133  A    between atoms: _326  and  _327
REMARK  134  A    between atoms: _330  and  _332
REMARK  135  A    between atoms: _332  and  _333
REMARK  136  A    between atoms: _332  and  _335
REMARK  137  A    between atoms: _335  and  _336
REMARK  138  A    between atoms: _339  and  _341
REMARK  139  A    between atoms: _341  and  _342
REMARK  140  A    between atoms: _341  and  _344
REMARK  141  A    between atoms: _344  and  _345
REMARK  142  A    between atoms: _348  and  _350
REMARK  143  A    between atoms: _350  and  _351
REMARK  144  A    between atoms: _353  and  _355
REMARK  145  A    between atoms: _355  and  _356
REMARK  146  A    between atoms: _359  and  _361
REMARK  147  A    between atoms: _361  and  _362
REMARK  148  A    between atoms: _361  and  _364
REMARK  149  A    between atoms: _364  and  _365
REMARK  150  A    between atoms: _368  and  _370
REMARK  151  A    between atoms: _370  and  _371
REMARK  152  A    between atoms: _370  and  _373
REMARK  153  A    between atoms: _373  and  _374
REMARK  154  A    between atoms: _379  and  _381
REMARK  155  A    between atoms: _381  and  _382
REMARK  156  A    between atoms: _381  and  _384
REMARK  157  A    between atoms: _384  and  _385
REMARK  158  A    between atoms: _388  and  _390
REMARK  159  A    between atoms: _390  and  _391
REMARK  160  A    between atoms: _390  and  _393
REMARK  161  A    between atoms: _396  and  _398
REMARK  162  A    between atoms: _398  and  _399
REMARK  163  A    between atoms: _398  and  _401
REMARK  164  A    between atoms: _401  and  _402
REMARK  165  A    between atoms: _402  and  _403
REMARK  166  A    between atoms: _403  and  _404
REMARK  167  A    between atoms: _404  and  _405
REMARK  168  A    between atoms: _409  and  _411
REMARK  169  A    between atoms: _411  and  _412
REMARK  170  A    between atoms: _411  and  _414
REMARK  171  A    between atoms: _414  and  _415
REMARK  172  A    between atoms: _415  and  _416
REMARK  173  A    between atoms: _418  and  _420
REMARK  174  A    between atoms: _420  and  _421
REMARK  175  A    between atoms: _420  and  _423
REMARK  176  A    between atoms: _423  and  _424
REMARK  177  A    between atoms: _427  and  _429
REMARK  178  A    between atoms: _429  and  _430
REMARK  179  A    between atoms: _432  and  _434
REMARK  180  A    between atoms: _434  and  _435
REMARK  181  A    between atoms: _437  and  _439
REMARK  182  A    between atoms: _439  and  _440
REMARK  183  A    between atoms: _439  and  _442
REMARK  184  A    between atoms: _442  and  _443
REMARK  185  A    between atoms: _446  and  _448
REMARK  186  A    between atoms: _448  and  _449
REMARK  187  A    between atoms: _451  and  _453
REMARK  188  A    between atoms: _453  and  _454
REMARK  189  A    between atoms: _456  and  _458
REMARK  190  A    between atoms: _458  and  _459
REMARK  191  A    between atoms: _458  and  _461
REMARK  192  A    between atoms: _461  and  _462
REMARK  193  A    between atoms: _468  and  _470
REMARK  194  A    between atoms: _470  and  _471
REMARK  195  A    between atoms: _470  and  _473
REMARK  196  A    between atoms: _473  and  _474
REMARK  197  A    between atoms: _477  and  _479
REMARK  198  A    between atoms: _479  and  _480
REMARK  199  A    between atoms: _479  and  _482
REMARK  200  A    between atoms: _485  and  _487
REMARK  201  A    between atoms: _487  and  _488
REMARK  202  A    between atoms: _487  and  _490
REMARK  203  A    between atoms: _490  and  _491
REMARK  204  A    between atoms: _494  and  _496
REMARK  205  A    between atoms: _496  and  _497
REMARK  206  A    between atoms: _496  and  _499
REMARK  207  A    between atoms: _499  and  _500
REMARK  208  A    between atoms: _504  and  _505
REMARK  209  A    between atoms: _510  and  _512
REMARK  210  A    between atoms: _512  and  _513
REMARK  211  A    between atoms: _512  and  _515
REMARK  212  A    between atoms: _518  and  _520
REMARK  213  A    between atoms: _520  and  _521
REMARK  214  A    between atoms: _520  and  _523
REMARK  215  A    between atoms: _523  and  _524
REMARK  216  A    between atoms: _529  and  _531
REMARK  217  A    between atoms: _531  and  _532
REMARK  218  A    between atoms: _531  and  _534
REMARK  219  A    between atoms: _534  and  _535
REMARK  220  A    between atoms: _538  and  _540
REMARK  221  A    between atoms: _540  and  _541
REMARK  222  A    between atoms: _540  and  _543
REMARK  223  A    between atoms: _543  and  _544
REMARK  224  A    between atoms: _547  and  _549
REMARK  225  A    between atoms: _549  and  _550
REMARK  226  A    between atoms: _552  and  _554
REMARK  227  A    between atoms: _554  and  _555
REMARK  228  A    between atoms: _554  and  _557
REMARK  229  A    between atoms: _557  and  _558
REMARK  230  A    between atoms: _558  and  _559
REMARK  231  A    between atoms: _559  and  _560
REMARK  232  A    between atoms: _569  and  _571
REMARK  233  A    between atoms: _571  and  _572
REMARK  234  A    between atoms: _571  and  _574
REMARK  235  A    between atoms: _574  and  _575
REMARK                            x       y       z     vdW  Elec       q    Type
REMARK                         _______ _______ _______ _____ _____    ______ ____
ROOT
ATOM      1  C   GLY A   5      10.931  23.933  18.647  0.00  0.00    +0.243 C 
ATOM      2  N   ALA A   6      10.832  23.574  19.916  0.00  0.00    -0.297 N 
ATOM      3  H   ALA A   6      10.701  24.327  20.621  0.00  0.00    +0.150 HD
ATOM      4  O   GLY A   5      11.103  23.101  17.729  0.00  0.00    -0.273 OA
ENDROOT
BRANCH   2   5
ATOM      5  CA  ALA A   6      10.893  22.200  20.400  0.00  0.00    +0.149 C 
ATOM      6  CB  ALA A   6      11.849  22.066  21.587  0.00  0.00    +0.031 C 
BRANCH   5   7
ATOM      7  C   ALA A   6       9.519  21.728  20.833  0.00  0.00    +0.241 C 
ATOM      8  O   ALA A   6       8.880  22.351  21.670  0.00  0.00    -0.273 OA
ATOM      9  N   ASP A   7       9.085  20.625  20.232  0.00  0.00    -0.297 N 
ATOM     10  H   ASP A   7       9.629  20.172  19.470  0.00  0.00    +0.150 HD
BRANCH   9  11
ATOM     11  CA  ASP A   7       7.812  20.079  20.689  0.00  0.00    +0.160 C 
BRANCH  11  12
ATOM     12  C   ASP A   7       7.901  19.541  22.114  0.00  0.00    +0.241 C 
ATOM     13  O   ASP A   7       6.963  19.641  22.900  0.00  0.00    -0.273 OA
ATOM     14  N   UNK A   8       9.059  18.955  22.397  0.00  0.00    -0.297 N 
ATOM     15  H   UNK A   8       9.794  19.073  21.671  0.00  0.00    +0.150 HD
BRANCH  14  16
ATOM     16  C   UNK A   8       9.464  18.184  23.543  0.00  0.00    +0.156 C 
BRANCH  16  17
ATOM     17  C   UNK A   8      10.513  18.877  24.399  0.00  0.00    +0.241 C 
ATOM     18  N   THR A   9      10.499  18.580  25.694  0.00  0.00    -0.295 N 
ATOM     19  H   THR A   9       9.683  18.068  26.086  0.00  0.00    +0.150 HD
ATOM     20  O   UNK A   8      11.325  19.659  23.895  0.00  0.00    -0.273 OA
BRANCH  18  21
ATOM     21  CA  THR A   9      11.600  18.953  26.586  0.00  0.00    +0.176 C 
BRANCH  21  22
ATOM     22  C   THR A   9      12.634  17.852  26.577  0.00  0.00    +0.243 C 
ATOM     23  O   THR A   9      12.282  16.650  26.734  0.00  0.00    -0.273 OA
ATOM     24  N   VAL A  10      13.880  18.252  26.404  0.00  0.00    -0.298 N 
ATOM     25  H   VAL A  10      14.089  19.270  26.357  0.00  0.00    +0.150 HD
BRANCH  24  26
ATOM     26  CA  VAL A  10      14.965  17.292  26.278  0.00  0.00    +0.137 C 
BRANCH  26  27
ATOM     27  CB  VAL A  10      15.493  17.137  24.843  0.00  0.00    +0.026 C 
ATOM     28  CG2 VAL A  10      16.430  15.922  24.831  0.00  0.00    +0.002 C 
ATOM     29  CG1 VAL A  10      14.441  16.989  23.764  0.00  0.00    +0.002 C 
ENDBRANCH  26  27
BRANCH  26  30
ATOM     30  C   VAL A  10      16.112  17.773  27.194  0.00  0.00    +0.227 C 
ATOM     31  O   VAL A  10      16.512  18.929  27.052  0.00  0.00    -0.286 OA
ENDBRANCH  26  30
ENDBRANCH  24  26
ENDBRANCH  21  22
BRANCH  21  32
ATOM     32  CB  THR A   9      11.029  19.121  27.997  0.00  0.00    +0.137 C 
ATOM     33  CG2 THR A   9      12.087  19.349  29.042  0.00  0.00    +0.034 C 
BRANCH  32  34
ATOM     34  OG1 THR A   9      10.184  20.297  27.971  0.00  0.00    -0.382 OA
ATOM     35  HG1 THR A   9       9.458  20.165  27.311  0.00  0.00    +0.210 HD
ENDBRANCH  32  34
ENDBRANCH  21  32
ENDBRANCH  18  21
ENDBRANCH  16  17
BRANCH  16  36
ATOM     36  C   UNK A   8      10.042  16.851  23.061  0.00  0.00    +0.101 C 
BRANCH  36  37
ATOM     37  C   UNK A   8       9.191  16.200  21.993  0.00  0.00    +0.210 C 
ATOM     38  O   UNK A   8       8.017  15.874  22.245  0.00  0.00    -0.288 OA
ENDBRANCH  36  37
ENDBRANCH  16  36
ENDBRANCH  14  16
ENDBRANCH  11  12
BRANCH  11  39
ATOM     39  CB  ASP A   7       7.380  18.920  19.794  0.00  0.00    +0.143 C 
BRANCH  39  40
ATOM     40  CG  ASP A   7       7.136  19.221  18.329  0.00  0.00    +0.367 C 
ATOM     41  OD2 ASP A   7       6.937  20.396  17.940  0.00  0.00    -0.246 OA
ATOM     42  OD1 ASP A   7       7.132  18.244  17.506  0.00  0.00    -0.246 OA
ENDBRANCH  39  40
ENDBRANCH  11  39
ENDBRANCH   9  11
ENDBRANCH   5   7
ENDBRANCH   2   5
BRANCH   1  43
ATOM     43  CA  GLY A   5      10.844  25.413  18.330  0.00  0.00    +0.176 C 
BRANCH  43  46
ATOM     44  C   THR A   4       9.430  26.542  19.954  0.00  0.00    +0.243 C 
ATOM     45  O   THR A   4       8.380  26.096  19.480  0.00  0.00    -0.273 OA
ATOM     46  N   GLY A   5      10.643  26.292  19.461  0.00  0.00    -0.295 N 
ATOM     47  H   GLY A   5      11.470  26.742  19.903  0.00  0.00    +0.150 HD
BRANCH  44  48
ATOM     48  CA  THR A   4       9.398  27.430  21.188  0.00  0.00    +0.176 C 
BRANCH  48  51
ATOM     49  C   ASP A   3      11.232  26.550  22.451  0.00  0.00    +0.241 C 
ATOM     50  O   ASP A   3      10.691  25.431  22.453  0.00  0.00    -0.273 OA
ATOM     51  N   THR A   4      10.679  27.595  21.829  0.00  0.00    -0.295 N 
ATOM     52  H   THR A   4      11.165  28.514  21.807  0.00  0.00    +0.150 HD
BRANCH  49  53
ATOM     53  CA  ASP A   3      12.564  26.776  23.128  0.00  0.00    +0.160 C 
BRANCH  53  55
ATOM     54  C   LEU A   2      13.015  28.087  25.112  0.00  0.00    +0.241 C 
ATOM     55  N   ASP A   3      12.450  27.040  24.563  0.00  0.00    -0.297 N 
ATOM     56  H   ASP A   3      11.909  26.382  25.160  0.00  0.00    +0.150 HD
ATOM     57  O   LEU A   2      13.447  29.029  24.435  0.00  0.00    -0.273 OA
BRANCH  54  58
ATOM     58  CA  LEU A   2      13.122  28.096  26.627  0.00  0.00    +0.149 C 
BRANCH  58  60
ATOM     59  C   LEU A   1      15.257  26.995  26.868  0.00  0.00    +0.238 C 
ATOM     60  N   LEU A   2      14.516  28.075  27.004  0.00  0.00    -0.297 N 
ATOM     61  H   LEU A   2      14.947  28.937  27.394  0.00  0.00    +0.150 HD
ATOM     62  O   LEU A   1      14.753  25.918  26.534  0.00  0.00    -0.274 OA
BRANCH  59  63
ATOM     63  CA  LEU A   1      16.759  27.088  27.110  0.00  0.00    +0.145 C 
BRANCH  63  64
ATOM     64  N   LEU A   1      17.169  26.146  28.149  0.00  0.00    -0.238 NA
ATOM     65  H   LEU A   1      17.352  25.160  27.875  0.00  0.00    +0.142 HD
ENDBRANCH  63  64
BRANCH  63  66
ATOM     66  CB  LEU A   1      17.549  26.706  25.868  0.00  0.00    +0.026 C 
BRANCH  66  67
ATOM     67  CG  LEU A   1      17.455  27.530  24.613  0.00  0.00    +0.002 C 
ATOM     68  CD2 LEU A   1      17.980  28.928  24.894  0.00  0.00    +0.000 C 
ATOM     69  CD1 LEU A   1      18.215  26.894  23.454  0.00  0.00    +0.000 C 
ENDBRANCH  66  67
ENDBRANCH  63  66
ENDBRANCH  59  63
ENDBRANCH  58  60
BRANCH  58  70
ATOM     70  CB  LEU A   2      12.421  29.346  27.176  0.00  0.00    +0.029 C 
BRANCH  70  71
ATOM     71  CG  LEU A   2      12.492  29.540  28.692  0.00  0.00    +0.002 C 
ATOM     72  CD2 LEU A   2      11.931  28.357  29.453  0.00  0.00    +0.000 C 
ATOM     73  CD1 LEU A   2      11.758  30.804  29.143  0.00  0.00    +0.000 C 
ENDBRANCH  70  71
ENDBRANCH  58  70
ENDBRANCH  54  58
ENDBRANCH  53  55
BRANCH  53  74
ATOM     74  CB  ASP A   3      13.476  25.573  22.954  0.00  0.00    +0.143 C 
BRANCH  74  75
ATOM     75  CG  ASP A   3      13.871  25.318  21.510  0.00  0.00    +0.367 C 
ATOM     76  OD2 ASP A   3      14.723  24.401  21.321  0.00  0.00    -0.246 OA
ATOM     77  OD1 ASP A   3      13.338  26.023  20.619  0.00  0.00    -0.246 OA
ENDBRANCH  74  75
ENDBRANCH  53  74
ENDBRANCH  49  53
ENDBRANCH  48  51
BRANCH  48  78
ATOM     78  CB  THR A   4       8.821  28.796  20.795  0.00  0.00    +0.137 C 
ATOM     79  CG2 THR A   4       8.608  29.663  22.028  0.00  0.00    +0.034 C 
BRANCH  78  80
ATOM     80  OG1 THR A   4       9.749  29.480  19.954  0.00  0.00    -0.382 OA
ATOM     81  HG1 THR A   4       9.912  28.943  19.139  0.00  0.00    +0.210 HD
ENDBRANCH  78  80
ENDBRANCH  48  78
ENDBRANCH  44  48
ENDBRANCH  43  46
ENDBRANCH   1  43
TORSDOF 35
REMARK  Name = ../refined-set-2016/2f80/2f80_pocket.pdb
REMARK  235 active torsions:
REMARK  status: ('A' for Active; 'I' for Inactive)
REMARK    1  A    between atoms: _1  and  _3
REMARK    2  A    between atoms: _3  and  _4
REMARK    3  A    between atoms: _3  and  _6
REMARK    4  A    between atoms: _6  and  _7
REMARK    5  A    between atoms: _7  and  _8
REMARK    6  A    between atoms: _8  and  _9
REMARK    7  A    between atoms: _18  and  _20
REMARK    8  A    between atoms: _20  and  _21
REMARK    9  A    between atoms: _20  and  _23
REMARK   10  A    between atoms: _23  and  _24
REMARK   11  A    between atoms: _27  and  _29
REMARK   12  A    between atoms: _29  and  _30
REMARK   13  A    between atoms: _29  and  _32
REMARK   14  A    between atoms: _32  and  _33
REMARK   15  A    between atoms: _36  and  _38
REMARK   16  A    between atoms: _38  and  _39
REMARK   17  A    between atoms: _38  and  _41
REMARK   18  A    between atoms: _41  and  _42
REMARK   19  A    between atoms: _45  and  _47
REMARK   20  A    between atoms: _47  and  _48
REMARK   21  A    between atoms: _47  and  _50
REMARK   22  A    between atoms: _50  and  _51
REMARK   23  A    between atoms: _54  and  _56
REMARK   24  A    between atoms: _56  and  _57
REMARK   25  A    between atoms: _59  and  _61
REMARK   26  A    between atoms: _61  and  _62
REMARK   27  A    between atoms: _65  and  _67
REMARK   28  A    between atoms: _67  and  _68
REMARK   29  A    between atoms: _67  and  _70
REMARK   30  A    between atoms: _70  and  _71
REMARK   31  A    between atoms: _74  and  _76
REMARK   32  A    between atoms: _76  and  _77
REMARK   33  A    between atoms: _76  and  _79
REMARK   34  A    between atoms: _79  and  _80
REMARK   35  A    between atoms: _85  and  _87
REMARK   36  A    between atoms: _87  and  _88
REMARK   37  A    between atoms: _87  and  _90
REMARK   38  A    between atoms: _90  and  _91
REMARK   39  A    between atoms: _94  and  _96
REMARK   40  A    between atoms: _96  and  _97
REMARK   41  A    between atoms: _96  and  _99
REMARK   42  A    between atoms: _102  and  _104
REMARK   43  A    between atoms: _104  and  _105
REMARK   44  A    between atoms: _104  and  _107
REMARK   45  A    between atoms: _107  and  _108
REMARK   46  A    between atoms: _111  and  _113
REMARK   47  A    between atoms: _113  and  _114
REMARK   48  A    between atoms: _113  and  _116
REMARK   49  A    between atoms: _117  and  _118
REMARK   50  A    between atoms: _118  and  _119
REMARK   51  A    between atoms: _119  and  _120
REMARK   52  A    between atoms: _124  and  _126
REMARK   53  A    between atoms: _126  and  _127
REMARK   54  A    between atoms: _126  and  _129
REMARK   55  A    between atoms: _129  and  _130
REMARK   56  A    between atoms: _130  and  _131
REMARK   57  A    between atoms: _133  and  _135
REMARK   58  A    between atoms: _135  and  _136
REMARK   59  A    between atoms: _135  and  _138
REMARK   60  A    between atoms: _138  and  _139
REMARK   61  A    between atoms: _142  and  _144
REMARK   62  A    between atoms: _144  and  _145
REMARK   63  A    between atoms: _147  and  _149
REMARK   64  A    between atoms: _149  and  _150
REMARK   65  A    between atoms: _152  and  _154
REMARK   66  A    between atoms: _154  and  _155
REMARK   67  A    between atoms: _154  and  _157
REMARK   68  A    between atoms: _157  and  _158
REMARK   69  A    between atoms: _161  and  _163
REMARK   70  A    between atoms: _163  and  _164
REMARK   71  A    between atoms: _166  and  _168
REMARK   72  A    between atoms: _168  and  _169
REMARK   73  A    between atoms: _171  and  _173
REMARK   74  A    between atoms: _173  and  _174
REMARK   75  A    between atoms: _173  and  _176
REMARK   76  A    between atoms: _176  and  _177
REMARK   77  A    between atoms: _183  and  _185
REMARK   78  A    between atoms: _185  and  _186
REMARK   79  A    between atoms: _185  and  _188
REMARK   80  A    between atoms: _188  and  _189
REMARK   81  A    between atoms: _192  and  _194
REMARK   82  A    between atoms: _194  and  _195
REMARK   83  A    between atoms: _194  and  _197
REMARK   84  A    between atoms: _200  and  _202
REMARK   85  A    between atoms: _202  and  _203
REMARK   86  A    between atoms: _202  and  _205
REMARK   87  A    between atoms: _205  and  _206
REMARK   88  A    between atoms: _209  and  _211
REMARK   89  A    between atoms: _211  and  _212
REMARK   90  A    between atoms: _211  and  _214
REMARK   91  A    between atoms: _214  and  _215
REMARK   92  A    between atoms: _219  and  _220
REMARK   93  A    between atoms: _225  and  _227
REMARK   94  A    between atoms: _227  and  _228
REMARK   95  A    between atoms: _227  and  _230
REMARK   96  A    between atoms: _233  and  _235
REMARK   97  A    between atoms: _235  and  _236
REMARK   98  A    between atoms: _235  and  _238
REMARK   99  A    between atoms: _238  and  _239
REMARK  100  A    between atoms: _244  and  _246
REMARK  101  A    between atoms: _246  and  _247
REMARK  102  A    between atoms: _246  and  _249
REMARK  103  A    between atoms: _249  and  _250
REMARK  104  A    between atoms: _253  and  _255
REMARK  105  A    between atoms: _255  and  _256
REMARK  106  A    between atoms: _255  and  _258
REMARK  107  A    between atoms: _258  and  _259
REMARK  108  A    between atoms: _262  and  _264
REMARK  109  A    between atoms: _264  and  _265
REMARK  110  A    between atoms: _267  and  _269
REMARK  111  A    between atoms: _269  and  _270
REMARK  112  A    between atoms: _269  and  _272
REMARK  113  A    between atoms: _272  and  _273
REMARK  114  A    between atoms: _273  and  _274
REMARK  115  A    between atoms: _274  and  _275
REMARK  116  A    between atoms: _284  and  _286
REMARK  117  A    between atoms: _286  and  _287
REMARK  118  A    between atoms: _286  and  _289
REMARK  119  A    between atoms: _289  and  _290
REMARK  120  A    between atoms: _295  and  _297
REMARK  121  A    between atoms: _297  and  _298
REMARK  122  A    between atoms: _297  and  _300
REMARK  123  A    between atoms: _300  and  _301
REMARK  124  A    between atoms: _301  and  _302
REMARK  125  A    between atoms: _302  and  _303
REMARK  126  A    between atoms: _312  and  _314
REMARK  127  A    between atoms: _314  and  _315
REMARK  128  A    between atoms: _314  and  _317
REMARK  129  A    between atoms: _317  and  _318
REMARK  130  A    between atoms: _321  and  _323
REMARK  131  A    between atoms: _323  and  _324
REMARK  132  A    between atoms: _323  and  _326
REMARK  133  A    between atoms: _326  and  _327
REMARK  134  A    between atoms: _330  and  _332
REMARK  135  A    between atoms: _332  and  _333
REMARK  136  A    between atoms: _332  and  _335
REMARK  137  A    between atoms: _335  and  _336
REMARK  138  A    between atoms: _339  and  _341
REMARK  139  A    between atoms: _341  and  _342
REMARK  140  A    between atoms: _341  and  _344
REMARK  141  A    between atoms: _344  and  _345
REMARK  142  A    between atoms: _348  and  _350
REMARK  143  A    between atoms: _350  and  _351
REMARK  144  A    between atoms: _353  and  _355
REMARK  145  A    between atoms: _355  and  _356
REMARK  146  A    between atoms: _359  and  _361
REMARK  147  A    between atoms: _361  and  _362
REMARK  148  A    between atoms: _361  and  _364
REMARK  149  A    between atoms: _364  and  _365
REMARK  150  A    between atoms: _368  and  _370
REMARK  151  A    between atoms: _370  and  _371
REMARK  152  A    between atoms: _370  and  _373
REMARK  153  A    between atoms: _373  and  _374
REMARK  154  A    between atoms: _379  and  _381
REMARK  155  A    between atoms: _381  and  _382
REMARK  156  A    between atoms: _381  and  _384
REMARK  157  A    between atoms: _384  and  _385
REMARK  158  A    between atoms: _388  and  _390
REMARK  159  A    between atoms: _390  and  _391
REMARK  160  A    between atoms: _390  and  _393
REMARK  161  A    between atoms: _396  and  _398
REMARK  162  A    between atoms: _398  and  _399
REMARK  163  A    between atoms: _398  and  _401
REMARK  164  A    between atoms: _401  and  _402
REMARK  165  A    between atoms: _402  and  _403
REMARK  166  A    between atoms: _403  and  _404
REMARK  167  A    between atoms: _404  and  _405
REMARK  168  A    between atoms: _409  and  _411
REMARK  169  A    between atoms: _411  and  _412
REMARK  170  A    between atoms: _411  and  _414
REMARK  171  A    between atoms: _414  and  _415
REMARK  172  A    between atoms: _415  and  _416
REMARK  173  A    between atoms: _418  and  _420
REMARK  174  A    between atoms: _420  and  _421
REMARK  175  A    between atoms: _420  and  _423
REMARK  176  A    between atoms: _423  and  _424
REMARK  177  A    between atoms: _427  and  _429
REMARK  178  A    between atoms: _429  and  _430
REMARK  179  A    between atoms: _432  and  _434
REMARK  180  A    between atoms: _434  and  _435
REMARK  181  A    between atoms: _437  and  _439
REMARK  182  A    between atoms: _439  and  _440
REMARK  183  A    between atoms: _439  and  _442
REMARK  184  A    between atoms: _442  and  _443
REMARK  185  A    between atoms: _446  and  _448
REMARK  186  A    between atoms: _448  and  _449
REMARK  187  A    between atoms: _451  and  _453
REMARK  188  A    between atoms: _453  and  _454
REMARK  189  A    between atoms: _456  and  _458
REMARK  190  A    between atoms: _458  and  _459
REMARK  191  A    between atoms: _458  and  _461
REMARK  192  A    between atoms: _461  and  _462
REMARK  193  A    between atoms: _468  and  _470
REMARK  194  A    between atoms: _470  and  _471
REMARK  195  A    between atoms: _470  and  _473
REMARK  196  A    between atoms: _473  and  _474
REMARK  197  A    between atoms: _477  and  _479
REMARK  198  A    between atoms: _479  and  _480
REMARK  199  A    between atoms: _479  and  _482
REMARK  200  A    between atoms: _485  and  _487
REMARK  201  A    between atoms: _487  and  _488
REMARK  202  A    between atoms: _487  and  _490
REMARK  203  A    between atoms: _490  and  _491
REMARK  204  A    between atoms: _494  and  _496
REMARK  205  A    between atoms: _496  and  _497
REMARK  206  A    between atoms: _496  and  _499
REMARK  207  A    between atoms: _499  and  _500
REMARK  208  A    between atoms: _504  and  _505
REMARK  209  A    between atoms: _510  and  _512
REMARK  210  A    between atoms: _512  and  _513
REMARK  211  A    between atoms: _512  and  _515
REMARK  212  A    between atoms: _518  and  _520
REMARK  213  A    between atoms: _520  and  _521
REMARK  214  A    between atoms: _520  and  _523
REMARK  215  A    between atoms: _523  and  _524
REMARK  216  A    between atoms: _529  and  _531
REMARK  217  A    between atoms: _531  and  _532
REMARK  218  A    between atoms: _531  and  _534
REMARK  219  A    between atoms: _534  and  _535
REMARK  220  A    between atoms: _538  and  _540
REMARK  221  A    between atoms: _540  and  _541
REMARK  222  A    between atoms: _540  and  _543
REMARK  223  A    between atoms: _543  and  _544
REMARK  224  A    between atoms: _547  and  _549
REMARK  225  A    between atoms: _549  and  _550
REMARK  226  A    between atoms: _552  and  _554
REMARK  227  A    between atoms: _554  and  _555
REMARK  228  A    between atoms: _554  and  _557
REMARK  229  A    between atoms: _557  and  _558
REMARK  230  A    between atoms: _558  and  _559
REMARK  231  A    between atoms: _559  and  _560
REMARK  232  A    between atoms: _569  and  _571
REMARK  233  A    between atoms: _571  and  _572
REMARK  234  A    between atoms: _571  and  _574
REMARK  235  A    between atoms: _574  and  _575
REMARK                            x       y       z     vdW  Elec       q    Type
REMARK                         _______ _______ _______ _____ _____    ______ ____
ROOT
ATOM      1  N   UNL     1       9.761  15.998  20.812  0.00  0.00    +0.038 NA
ATOM      2  O   UNL     1       9.165  15.322  20.484  0.00  0.00    -0.278 OA
ATOM      3  H   UNL     1       9.222  15.548  20.045  0.00  0.00    +0.240 HD
ENDROOT
TORSDOF 0
REMARK  Name = ../refined-set-2016/2f80/2f80_pocket.pdb
REMARK  235 active torsions:
REMARK  status: ('A' for Active; 'I' for Inactive)
REMARK    1  A    between atoms: _1  and  _3
REMARK    2  A    between atoms: _3  and  _4
REMARK    3  A    between atoms: _3  and  _6
REMARK    4  A    between atoms: _6  and  _7
REMARK    5  A    between atoms: _7  and  _8
REMARK    6  A    between atoms: _8  and  _9
REMARK    7  A    between atoms: _18  and  _20
REMARK    8  A    between atoms: _20  and  _21
REMARK    9  A    between atoms: _20  and  _23
REMARK   10  A    between atoms: _23  and  _24
REMARK   11  A    between atoms: _27  and  _29
REMARK   12  A    between atoms: _29  and  _30
REMARK   13  A    between atoms: _29  and  _32
REMARK   14  A    between atoms: _32  and  _33
REMARK   15  A    between atoms: _36  and  _38
REMARK   16  A    between atoms: _38  and  _39
REMARK   17  A    between atoms: _38  and  _41
REMARK   18  A    between atoms: _41  and  _42
REMARK   19  A    between atoms: _45  and  _47
REMARK   20  A    between atoms: _47  and  _48
REMARK   21  A    between atoms: _47  and  _50
REMARK   22  A    between atoms: _50  and  _51
REMARK   23  A    between atoms: _54  and  _56
REMARK   24  A    between atoms: _56  and  _57
REMARK   25  A    between atoms: _59  and  _61
REMARK   26  A    between atoms: _61  and  _62
REMARK   27  A    between atoms: _65  and  _67
REMARK   28  A    between atoms: _67  and  _68
REMARK   29  A    between atoms: _67  and  _70
REMARK   30  A    between atoms: _70  and  _71
REMARK   31  A    between atoms: _74  and  _76
REMARK   32  A    between atoms: _76  and  _77
REMARK   33  A    between atoms: _76  and  _79
REMARK   34  A    between atoms: _79  and  _80
REMARK   35  A    between atoms: _85  and  _87
REMARK   36  A    between atoms: _87  and  _88
REMARK   37  A    between atoms: _87  and  _90
REMARK   38  A    between atoms: _90  and  _91
REMARK   39  A    between atoms: _94  and  _96
REMARK   40  A    between atoms: _96  and  _97
REMARK   41  A    between atoms: _96  and  _99
REMARK   42  A    between atoms: _102  and  _104
REMARK   43  A    between atoms: _104  and  _105
REMARK   44  A    between atoms: _104  and  _107
REMARK   45  A    between atoms: _107  and  _108
REMARK   46  A    between atoms: _111  and  _113
REMARK   47  A    between atoms: _113  and  _114
REMARK   48  A    between atoms: _113  and  _116
REMARK   49  A    between atoms: _117  and  _118
REMARK   50  A    between atoms: _118  and  _119
REMARK   51  A    between atoms: _119  and  _120
REMARK   52  A    between atoms: _124  and  _126
REMARK   53  A    between atoms: _126  and  _127
REMARK   54  A    between atoms: _126  and  _129
REMARK   55  A    between atoms: _129  and  _130
REMARK   56  A    between atoms: _130  and  _131
REMARK   57  A    between atoms: _133  and  _135
REMARK   58  A    between atoms: _135  and  _136
REMARK   59  A    between atoms: _135  and  _138
REMARK   60  A    between atoms: _138  and  _139
REMARK   61  A    between atoms: _142  and  _144
REMARK   62  A    between atoms: _144  and  _145
REMARK   63  A    between atoms: _147  and  _149
REMARK   64  A    between atoms: _149  and  _150
REMARK   65  A    between atoms: _152  and  _154
REMARK   66  A    between atoms: _154  and  _155
REMARK   67  A    between atoms: _154  and  _157
REMARK   68  A    between atoms: _157  and  _158
REMARK   69  A    between atoms: _161  and  _163
REMARK   70  A    between atoms: _163  and  _164
REMARK   71  A    between atoms: _166  and  _168
REMARK   72  A    between atoms: _168  and  _169
REMARK   73  A    between atoms: _171  and  _173
REMARK   74  A    between atoms: _173  and  _174
REMARK   75  A    between atoms: _173  and  _176
REMARK   76  A    between atoms: _176  and  _177
REMARK   77  A    between atoms: _183  and  _185
REMARK   78  A    between atoms: _185  and  _186
REMARK   79  A    between atoms: _185  and  _188
REMARK   80  A    between atoms: _188  and  _189
REMARK   81  A    between atoms: _192  and  _194
REMARK   82  A    between atoms: _194  and  _195
REMARK   83  A    between atoms: _194  and  _197
REMARK   84  A    between atoms: _200  and  _202
REMARK   85  A    between atoms: _202  and  _203
REMARK   86  A    between atoms: _202  and  _205
REMARK   87  A    between atoms: _205  and  _206
REMARK   88  A    between atoms: _209  and  _211
REMARK   89  A    between atoms: _211  and  _212
REMARK   90  A    between atoms: _211  and  _214
REMARK   91  A    between atoms: _214  and  _215
REMARK   92  A    between atoms: _219  and  _220
REMARK   93  A    between atoms: _225  and  _227
REMARK   94  A    between atoms: _227  and  _228
REMARK   95  A    between atoms: _227  and  _230
REMARK   96  A    between atoms: _233  and  _235
REMARK   97  A    between atoms: _235  and  _236
REMARK   98  A    between atoms: _235  and  _238
REMARK   99  A    between atoms: _238  and  _239
REMARK  100  A    between atoms: _244  and  _246
REMARK  101  A    between atoms: _246  and  _247
REMARK  102  A    between atoms: _246  and  _249
REMARK  103  A    between atoms: _249  and  _250
REMARK  104  A    between atoms: _253  and  _255
REMARK  105  A    between atoms: _255  and  _256
REMARK  106  A    between atoms: _255  and  _258
REMARK  107  A    between atoms: _258  and  _259
REMARK  108  A    between atoms: _262  and  _264
REMARK  109  A    between atoms: _264  and  _265
REMARK  110  A    between atoms: _267  and  _269
REMARK  111  A    between atoms: _269  and  _270
REMARK  112  A    between atoms: _269  and  _272
REMARK  113  A    between atoms: _272  and  _273
REMARK  114  A    between atoms: _273  and  _274
REMARK  115  A    between atoms: _274  and  _275
REMARK  116  A    between atoms: _284  and  _286
REMARK  117  A    between atoms: _286  and  _287
REMARK  118  A    between atoms: _286  and  _289
REMARK  119  A    between atoms: _289  and  _290
REMARK  120  A    between atoms: _295  and  _297
REMARK  121  A    between atoms: _297  and  _298
REMARK  122  A    between atoms: _297  and  _300
REMARK  123  A    between atoms: _300  and  _301
REMARK  124  A    between atoms: _301  and  _302
REMARK  125  A    between atoms: _302  and  _303
REMARK  126  A    between atoms: _312  and  _314
REMARK  127  A    between atoms: _314  and  _315
REMARK  128  A    between atoms: _314  and  _317
REMARK  129  A    between atoms: _317  and  _318
REMARK  130  A    between atoms: _321  and  _323
REMARK  131  A    between atoms: _323  and  _324
REMARK  132  A    between atoms: _323  and  _326
REMARK  133  A    between atoms: _326  and  _327
REMARK  134  A    between atoms: _330  and  _332
REMARK  135  A    between atoms: _332  and  _333
REMARK  136  A    between atoms: _332  and  _335
REMARK  137  A    between atoms: _335  and  _336
REMARK  138  A    between atoms: _339  and  _341
REMARK  139  A    between atoms: _341  and  _342
REMARK  140  A    between atoms: _341  and  _344
REMARK  141  A    between atoms: _344  and  _345
REMARK  142  A    between atoms: _348  and  _350
REMARK  143  A    between atoms: _350  and  _351
REMARK  144  A    between atoms: _353  and  _355
REMARK  145  A    between atoms: _355  and  _356
REMARK  146  A    between atoms: _359  and  _361
REMARK  147  A    between atoms: _361  and  _362
REMARK  148  A    between atoms: _361  and  _364
REMARK  149  A    between atoms: _364  and  _365
REMARK  150  A    between atoms: _368  and  _370
REMARK  151  A    between atoms: _370  and  _371
REMARK  152  A    between atoms: _370  and  _373
REMARK  153  A    between atoms: _373  and  _374
REMARK  154  A    between atoms: _379  and  _381
REMARK  155  A    between atoms: _381  and  _382
REMARK  156  A    between atoms: _381  and  _384
REMARK  157  A    between atoms: _384  and  _385
REMARK  158  A    between atoms: _388  and  _390
REMARK  159  A    between atoms: _390  and  _391
REMARK  160  A    between atoms: _390  and  _393
REMARK  161  A    between atoms: _396  and  _398
REMARK  162  A    between atoms: _398  and  _399
REMARK  163  A    between atoms: _398  and  _401
REMARK  164  A    between atoms: _401  and  _402
REMARK  165  A    between atoms: _402  and  _403
REMARK  166  A    between atoms: _403  and  _404
REMARK  167  A    between atoms: _404  and  _405
REMARK  168  A    between atoms: _409  and  _411
REMARK  169  A    between atoms: _411  and  _412
REMARK  170  A    between atoms: _411  and  _414
REMARK  171  A    between atoms: _414  and  _415
REMARK  172  A    between atoms: _415  and  _416
REMARK  173  A    between atoms: _418  and  _420
REMARK  174  A    between atoms: _420  and  _421
REMARK  175  A    between atoms: _420  and  _423
REMARK  176  A    between atoms: _423  and  _424
REMARK  177  A    between atoms: _427  and  _429
REMARK  178  A    between atoms: _429  and  _430
REMARK  179  A    between atoms: _432  and  _434
REMARK  180  A    between atoms: _434  and  _435
REMARK  181  A    between atoms: _437  and  _439
REMARK  182  A    between atoms: _439  and  _440
REMARK  183  A    between atoms: _439  and  _442
REMARK  184  A    between atoms: _442  and  _443
REMARK  185  A    between atoms: _446  and  _448
REMARK  186  A    between atoms: _448  and  _449
REMARK  187  A    between atoms: _451  and  _453
REMARK  188  A    between atoms: _453  and  _454
REMARK  189  A    between atoms: _456  and  _458
REMARK  190  A    between atoms: _458  and  _459
REMARK  191  A    between atoms: _458  and  _461
REMARK  192  A    between atoms: _461  and  _462
REMARK  193  A    between atoms: _468  and  _470
REMARK  194  A    between atoms: _470  and  _471
REMARK  195  A    between atoms: _470  and  _473
REMARK  196  A    between atoms: _473  and  _474
REMARK  197  A    between atoms: _477  and  _479
REMARK  198  A    between atoms: _479  and  _480
REMARK  199  A    between atoms: _479  and  _482
REMARK  200  A    between atoms: _485  and  _487
REMARK  201  A    between atoms: _487  and  _488
REMARK  202  A    between atoms: _487  and  _490
REMARK  203  A    between atoms: _490  and  _491
REMARK  204  A    between atoms: _494  and  _496
REMARK  205  A    between atoms: _496  and  _497
REMARK  206  A    between atoms: _496  and  _499
REMARK  207  A    between atoms: _499  and  _500
REMARK  208  A    between atoms: _504  and  _505
REMARK  209  A    between atoms: _510  and  _512
REMARK  210  A    between atoms: _512  and  _513
REMARK  211  A    between atoms: _512  and  _515
REMARK  212  A    between atoms: _518  and  _520
REMARK  213  A    between atoms: _520  and  _521
REMARK  214  A    between atoms: _520  and  _523
REMARK  215  A    between atoms: _523  and  _524
REMARK  216  A    between atoms: _529  and  _531
REMARK  217  A    between atoms: _531  and  _532
REMARK  218  A    between atoms: _531  and  _534
REMARK  219  A    between atoms: _534  and  _535
REMARK  220  A    between atoms: _538  and  _540
REMARK  221  A    between atoms: _540  and  _541
REMARK  222  A    between atoms: _540  and  _543
REMARK  223  A    between atoms: _543  and  _544
REMARK  224  A    between atoms: _547  and  _549
REMARK  225  A    between atoms: _549  and  _550
REMARK  226  A    between atoms: _552  and  _554
REMARK  227  A    between atoms: _554  and  _555
REMARK  228  A    between atoms: _554  and  _557
REMARK  229  A    between atoms: _557  and  _558
REMARK  230  A    between atoms: _558  and  _559
REMARK  231  A    between atoms: _559  and  _560
REMARK  232  A    between atoms: _569  and  _571
REMARK  233  A    between atoms: _571  and  _572
REMARK  234  A    between atoms: _571  and  _574
REMARK  235  A    between atoms: _574  and  _575
REMARK                            x       y       z     vdW  Elec       q    Type
REMARK                         _______ _______ _______ _____ _____    ______ ____
ROOT
ATOM      1  H   UNK     1      10.747  16.290  20.654  0.00  0.00    +0.000 HD
ENDROOT
TORSDOF 0
REMARK  Name = ../refined-set-2016/2f80/2f80_pocket.pdb
REMARK  235 active torsions:
REMARK  status: ('A' for Active; 'I' for Inactive)
REMARK    1  A    between atoms: _1  and  _3
REMARK    2  A    between atoms: _3  and  _4
REMARK    3  A    between atoms: _3  and  _6
REMARK    4  A    between atoms: _6  and  _7
REMARK    5  A    between atoms: _7  and  _8
REMARK    6  A    between atoms: _8  and  _9
REMARK    7  A    between atoms: _18  and  _20
REMARK    8  A    between atoms: _20  and  _21
REMARK    9  A    between atoms: _20  and  _23
REMARK   10  A    between atoms: _23  and  _24
REMARK   11  A    between atoms: _27  and  _29
REMARK   12  A    between atoms: _29  and  _30
REMARK   13  A    between atoms: _29  and  _32
REMARK   14  A    between atoms: _32  and  _33
REMARK   15  A    between atoms: _36  and  _38
REMARK   16  A    between atoms: _38  and  _39
REMARK   17  A    between atoms: _38  and  _41
REMARK   18  A    between atoms: _41  and  _42
REMARK   19  A    between atoms: _45  and  _47
REMARK   20  A    between atoms: _47  and  _48
REMARK   21  A    between atoms: _47  and  _50
REMARK   22  A    between atoms: _50  and  _51
REMARK   23  A    between atoms: _54  and  _56
REMARK   24  A    between atoms: _56  and  _57
REMARK   25  A    between atoms: _59  and  _61
REMARK   26  A    between atoms: _61  and  _62
REMARK   27  A    between atoms: _65  and  _67
REMARK   28  A    between atoms: _67  and  _68
REMARK   29  A    between atoms: _67  and  _70
REMARK   30  A    between atoms: _70  and  _71
REMARK   31  A    between atoms: _74  and  _76
REMARK   32  A    between atoms: _76  and  _77
REMARK   33  A    between atoms: _76  and  _79
REMARK   34  A    between atoms: _79  and  _80
REMARK   35  A    between atoms: _85  and  _87
REMARK   36  A    between atoms: _87  and  _88
REMARK   37  A    between atoms: _87  and  _90
REMARK   38  A    between atoms: _90  and  _91
REMARK   39  A    between atoms: _94  and  _96
REMARK   40  A    between atoms: _96  and  _97
REMARK   41  A    between atoms: _96  and  _99
REMARK   42  A    between atoms: _102  and  _104
REMARK   43  A    between atoms: _104  and  _105
REMARK   44  A    between atoms: _104  and  _107
REMARK   45  A    between atoms: _107  and  _108
REMARK   46  A    between atoms: _111  and  _113
REMARK   47  A    between atoms: _113  and  _114
REMARK   48  A    between atoms: _113  and  _116
REMARK   49  A    between atoms: _117  and  _118
REMARK   50  A    between atoms: _118  and  _119
REMARK   51  A    between atoms: _119  and  _120
REMARK   52  A    between atoms: _124  and  _126
REMARK   53  A    between atoms: _126  and  _127
REMARK   54  A    between atoms: _126  and  _129
REMARK   55  A    between atoms: _129  and  _130
REMARK   56  A    between atoms: _130  and  _131
REMARK   57  A    between atoms: _133  and  _135
REMARK   58  A    between atoms: _135  and  _136
REMARK   59  A    between atoms: _135  and  _138
REMARK   60  A    between atoms: _138  and  _139
REMARK   61  A    between atoms: _142  and  _144
REMARK   62  A    between atoms: _144  and  _145
REMARK   63  A    between atoms: _147  and  _149
REMARK   64  A    between atoms: _149  and  _150
REMARK   65  A    between atoms: _152  and  _154
REMARK   66  A    between atoms: _154  and  _155
REMARK   67  A    between atoms: _154  and  _157
REMARK   68  A    between atoms: _157  and  _158
REMARK   69  A    between atoms: _161  and  _163
REMARK   70  A    between atoms: _163  and  _164
REMARK   71  A    between atoms: _166  and  _168
REMARK   72  A    between atoms: _168  and  _169
REMARK   73  A    between atoms: _171  and  _173
REMARK   74  A    between atoms: _173  and  _174
REMARK   75  A    between atoms: _173  and  _176
REMARK   76  A    between atoms: _176  and  _177
REMARK   77  A    between atoms: _183  and  _185
REMARK   78  A    between atoms: _185  and  _186
REMARK   79  A    between atoms: _185  and  _188
REMARK   80  A    between atoms: _188  and  _189
REMARK   81  A    between atoms: _192  and  _194
REMARK   82  A    between atoms: _194  and  _195
REMARK   83  A    between atoms: _194  and  _197
REMARK   84  A    between atoms: _200  and  _202
REMARK   85  A    between atoms: _202  and  _203
REMARK   86  A    between atoms: _202  and  _205
REMARK   87  A    between atoms: _205  and  _206
REMARK   88  A    between atoms: _209  and  _211
REMARK   89  A    between atoms: _211  and  _212
REMARK   90  A    between atoms: _211  and  _214
REMARK   91  A    between atoms: _214  and  _215
REMARK   92  A    between atoms: _219  and  _220
REMARK   93  A    between atoms: _225  and  _227
REMARK   94  A    between atoms: _227  and  _228
REMARK   95  A    between atoms: _227  and  _230
REMARK   96  A    between atoms: _233  and  _235
REMARK   97  A    between atoms: _235  and  _236
REMARK   98  A    between atoms: _235  and  _238
REMARK   99  A    between atoms: _238  and  _239
REMARK  100  A    between atoms: _244  and  _246
REMARK  101  A    between atoms: _246  and  _247
REMARK  102  A    between atoms: _246  and  _249
REMARK  103  A    between atoms: _249  and  _250
REMARK  104  A    between atoms: _253  and  _255
REMARK  105  A    between atoms: _255  and  _256
REMARK  106  A    between atoms: _255  and  _258
REMARK  107  A    between atoms: _258  and  _259
REMARK  108  A    between atoms: _262  and  _264
REMARK  109  A    between atoms: _264  and  _265
REMARK  110  A    between atoms: _267  and  _269
REMARK  111  A    between atoms: _269  and  _270
REMARK  112  A    between atoms: _269  and  _272
REMARK  113  A    between atoms: _272  and  _273
REMARK  114  A    between atoms: _273  and  _274
REMARK  115  A    between atoms: _274  and  _275
REMARK  116  A    between atoms: _284  and  _286
REMARK  117  A    between atoms: _286  and  _287
REMARK  118  A    between atoms: _286  and  _289
REMARK  119  A    between atoms: _289  and  _290
REMARK  120  A    between atoms: _295  and  _297
REMARK  121  A    between atoms: _297  and  _298
REMARK  122  A    between atoms: _297  and  _300
REMARK  123  A    between atoms: _300  and  _301
REMARK  124  A    between atoms: _301  and  _302
REMARK  125  A    between atoms: _302  and  _303
REMARK  126  A    between atoms: _312  and  _314
REMARK  127  A    between atoms: _314  and  _315
REMARK  128  A    between atoms: _314  and  _317
REMARK  129  A    between atoms: _317  and  _318
REMARK  130  A    between atoms: _321  and  _323
REMARK  131  A    between atoms: _323  and  _324
REMARK  132  A    between atoms: _323  and  _326
REMARK  133  A    between atoms: _326  and  _327
REMARK  134  A    between atoms: _330  and  _332
REMARK  135  A    between atoms: _332  and  _333
REMARK  136  A    between atoms: _332  and  _335
REMARK  137  A    between atoms: _335  and  _336
REMARK  138  A    between atoms: _339  and  _341
REMARK  139  A    between atoms: _341  and  _342
REMARK  140  A    between atoms: _341  and  _344
REMARK  141  A    between atoms: _344  and  _345
REMARK  142  A    between atoms: _348  and  _350
REMARK  143  A    between atoms: _350  and  _351
REMARK  144  A    between atoms: _353  and  _355
REMARK  145  A    between atoms: _355  and  _356
REMARK  146  A    between atoms: _359  and  _361
REMARK  147  A    between atoms: _361  and  _362
REMARK  148  A    between atoms: _361  and  _364
REMARK  149  A    between atoms: _364  and  _365
REMARK  150  A    between atoms: _368  and  _370
REMARK  151  A    between atoms: _370  and  _371
REMARK  152  A    between atoms: _370  and  _373
REMARK  153  A    between atoms: _373  and  _374
REMARK  154  A    between atoms: _379  and  _381
REMARK  155  A    between atoms: _381  and  _382
REMARK  156  A    between atoms: _381  and  _384
REMARK  157  A    between atoms: _384  and  _385
REMARK  158  A    between atoms: _388  and  _390
REMARK  159  A    between atoms: _390  and  _391
REMARK  160  A    between atoms: _390  and  _393
REMARK  161  A    between atoms: _396  and  _398
REMARK  162  A    between atoms: _398  and  _399
REMARK  163  A    between atoms: _398  and  _401
REMARK  164  A    between atoms: _401  and  _402
REMARK  165  A    between atoms: _402  and  _403
REMARK  166  A    between atoms: _403  and  _404
REMARK  167  A    between atoms: _404  and  _405
REMARK  168  A    between atoms: _409  and  _411
REMARK  169  A    between atoms: _411  and  _412
REMARK  170  A    between atoms: _411  and  _414
REMARK  171  A    between atoms: _414  and  _415
REMARK  172  A    between atoms: _415  and  _416
REMARK  173  A    between atoms: _418  and  _420
REMARK  174  A    between atoms: _420  and  _421
REMARK  175  A    between atoms: _420  and  _423
REMARK  176  A    between atoms: _423  and  _424
REMARK  177  A    between atoms: _427  and  _429
REMARK  178  A    between atoms: _429  and  _430
REMARK  179  A    between atoms: _432  and  _434
REMARK  180  A    between atoms: _434  and  _435
REMARK  181  A    between atoms: _437  and  _439
REMARK  182  A    between atoms: _439  and  _440
REMARK  183  A    between atoms: _439  and  _442
REMARK  184  A    between atoms: _442  and  _443
REMARK  185  A    between atoms: _446  and  _448
REMARK  186  A    between atoms: _448  and  _449
REMARK  187  A    between atoms: _451  and  _453
REMARK  188  A    between atoms: _453  and  _454
REMARK  189  A    between atoms: _456  and  _458
REMARK  190  A    between atoms: _458  and  _459
REMARK  191  A    between atoms: _458  and  _461
REMARK  192  A    between atoms: _461  and  _462
REMARK  193  A    between atoms: _468  and  _470
REMARK  194  A    between atoms: _470  and  _471
REMARK  195  A    between atoms: _470  and  _473
REMARK  196  A    between atoms: _473  and  _474
REMARK  197  A    between atoms: _477  and  _479
REMARK  198  A    between atoms: _479  and  _480
REMARK  199  A    between atoms: _479  and  _482
REMARK  200  A    between atoms: _485  and  _487
REMARK  201  A    between atoms: _487  and  _488
REMARK  202  A    between atoms: _487  and  _490
REMARK  203  A    between atoms: _490  and  _491
REMARK  204  A    between atoms: _494  and  _496
REMARK  205  A    between atoms: _496  and  _497
REMARK  206  A    between atoms: _496  and  _499
REMARK  207  A    between atoms: _499  and  _500
REMARK  208  A    between atoms: _504  and  _505
REMARK  209  A    between atoms: _510  and  _512
REMARK  210  A    between atoms: _512  and  _513
REMARK  211  A    between atoms: _512  and  _515
REMARK  212  A    between atoms: _518  and  _520
REMARK  213  A    between atoms: _520  and  _521
REMARK  214  A    between atoms: _520  and  _523
REMARK  215  A    between atoms: _523  and  _524
REMARK  216  A    between atoms: _529  and  _531
REMARK  217  A    between atoms: _531  and  _532
REMARK  218  A    between atoms: _531  and  _534
REMARK  219  A    between atoms: _534  and  _535
REMARK  220  A    between atoms: _538  and  _540
REMARK  221  A    between atoms: _540  and  _541
REMARK  222  A    between atoms: _540  and  _543
REMARK  223  A    between atoms: _543  and  _544
REMARK  224  A    between atoms: _547  and  _549
REMARK  225  A    between atoms: _549  and  _550
REMARK  226  A    between atoms: _552  and  _554
REMARK  227  A    between atoms: _554  and  _555
REMARK  228  A    between atoms: _554  and  _557
REMARK  229  A    between atoms: _557  and  _558
REMARK  230  A    between atoms: _558  and  _559
REMARK  231  A    between atoms: _559  and  _560
REMARK  232  A    between atoms: _569  and  _571
REMARK  233  A    between atoms: _571  and  _572
REMARK  234  A    between atoms: _571  and  _574
REMARK  235  A    between atoms: _574  and  _575
REMARK                            x       y       z     vdW  Elec       q    Type
REMARK                         _______ _______ _______ _____ _____    ______ ____
ROOT
ATOM      1  C   GLY A   5      17.241  18.303  13.716  0.00  0.00    +0.243 C 
ATOM      2  N   ILE A   6      17.975  19.398  13.852  0.00  0.00    -0.297 N 
ATOM      3  H   ILE A   6      18.015  19.904  14.760  0.00  0.00    +0.150 HD
ATOM      4  O   GLY A   5      17.266  17.613  12.687  0.00  0.00    -0.273 OA
ENDROOT
BRANCH   2   5
ATOM      5  CA  ILE A   6      18.719  19.871  12.705  0.00  0.00    +0.149 C 
BRANCH   5   6
ATOM      6  C   ILE A   6      19.679  18.880  12.103  0.00  0.00    +0.241 C 
ATOM      7  N   GLY A   7      20.448  18.081  12.790  0.00  0.00    -0.295 N 
ATOM      8  H   GLY A   7      20.351  17.996  13.822  0.00  0.00    +0.150 HD
ATOM      9  O   ILE A   6      19.616  18.872  10.873  0.00  0.00    -0.273 OA
BRANCH   7  10
ATOM     10  CA  GLY A   7      21.465  17.298  12.049  0.00  0.00    +0.176 C 
BRANCH  10  11
ATOM     11  C   GLY A   7      21.083  15.860  11.998  0.00  0.00    +0.243 C 
ATOM     12  N   GLY A   8      19.839  15.543  12.312  0.00  0.00    -0.295 N 
ATOM     13  H   GLY A   8      19.137  16.274  12.545  0.00  0.00    +0.150 HD
ATOM     14  O   GLY A   7      21.895  14.989  11.686  0.00  0.00    -0.273 OA
BRANCH  12  15
ATOM     15  CA  GLY A   8      19.489  14.123  12.319  0.00  0.00    +0.176 C 
BRANCH  15  16
ATOM     16  C   GLY A   8      18.673  13.745  13.548  0.00  0.00    +0.243 C 
ATOM     17  O   GLY A   8      18.233  14.539  14.367  0.00  0.00    -0.273 OA
ATOM     18  N   PHE A   9      18.445  12.443  13.658  0.00  0.00    -0.297 N 
ATOM     19  H   PHE A   9      18.836  11.812  12.930  0.00  0.00    +0.150 HD
BRANCH  18  20
ATOM     20  CA  PHE A   9      17.682  11.853  14.735  0.00  0.00    +0.153 C 
BRANCH  20  21
ATOM     21  C   PHE A   9      18.575  11.293  15.832  0.00  0.00    +0.241 C 
ATOM     22  N   ILE A  10      18.050  11.342  17.034  0.00  0.00    -0.298 N 
ATOM     23  H   ILE A  10      17.153  11.851  17.165  0.00  0.00    +0.150 HD
ATOM     24  O   PHE A   9      19.683  10.843  15.572  0.00  0.00    -0.273 OA
BRANCH  22  25
ATOM     25  CA  ILE A  10      18.673  10.711  18.195  0.00  0.00    +0.137 C 
BRANCH  25  26
ATOM     26  C   ILE A  10      17.595   9.902  18.934  0.00  0.00    +0.227 C 
ATOM     27  O   ILE A  10      16.394  10.210  18.902  0.00  0.00    -0.286 OA
ENDBRANCH  25  26
BRANCH  25  28
ATOM     28  CB  ILE A  10      19.343  11.753  19.113  0.00  0.00    +0.026 C 
ATOM     29  CG2 ILE A  10      20.495  12.544  18.464  0.00  0.00    +0.002 C 
BRANCH  28  30
ATOM     30  CG1 ILE A  10      18.331  12.748  19.711  0.00  0.00    +0.002 C 
ATOM     31  CD1 ILE A  10      18.853  13.455  20.940  0.00  0.00    +0.000 C 
ENDBRANCH  28  30
ENDBRANCH  25  28
ENDBRANCH  22  25
ENDBRANCH  20  21
BRANCH  20  32
ATOM     32  CB  PHE A   9      16.821  10.686  14.232  0.00  0.00    +0.055 C 
BRANCH  32  33
ATOM     33  CG  PHE A   9      15.532  11.199  13.626  0.00  0.00    -0.020 A 
ATOM     34  CD2 PHE A   9      14.384  11.285  14.364  0.00  0.00    -0.004 A 
ATOM     35  CE2 PHE A   9      13.194  11.750  13.837  0.00  0.00    -0.000 A 
ATOM     36  CZ  PHE A   9      13.176  12.172  12.519  0.00  0.00    -0.000 A 
ATOM     37  CE1 PHE A   9      14.330  12.075  11.770  0.00  0.00    -0.000 A 
ATOM     38  CD1 PHE A   9      15.513  11.605  12.312  0.00  0.00    -0.004 A 
ENDBRANCH  32  33
ENDBRANCH  20  32
ENDBRANCH  18  20
ENDBRANCH  15  16
ENDBRANCH  12  15
ENDBRANCH  10  11
ENDBRANCH   7  10
ENDBRANCH   5   6
BRANCH   5  39
ATOM     39  CB  ILE A   6      19.371  21.255  12.883  0.00  0.00    +0.027 C 
ATOM     40  CG2 ILE A   6      20.862  21.269  12.938  0.00  0.00    +0.002 C 
BRANCH  39  41
ATOM     41  CG1 ILE A   6      18.935  22.179  11.724  0.00  0.00    +0.002 C 
ATOM     42  CD1 ILE A   6      19.186  23.631  12.001  0.00  0.00    +0.000 C 
ENDBRANCH  39  41
ENDBRANCH   5  39
ENDBRANCH   2   5
BRANCH   1  43
ATOM     43  CA  GLY A   5      16.405  17.936  14.929  0.00  0.00    +0.176 C 
BRANCH  43  46
ATOM     44  C   GLY A   4      14.894  16.154  15.046  0.00  0.00    +0.243 C 
ATOM     45  O   GLY A   4      14.009  16.982  15.258  0.00  0.00    -0.273 OA
ATOM     46  N   GLY A   5      16.147  16.509  14.943  0.00  0.00    -0.295 N 
ATOM     47  H   GLY A   5      16.914  15.810  14.875  0.00  0.00    +0.150 HD
BRANCH  44  48
ATOM     48  CA  GLY A   4      14.620  14.692  14.893  0.00  0.00    +0.176 C 
BRANCH  48  51
ATOM     49  C   ILE A   3      14.498  13.344  16.937  0.00  0.00    +0.241 C 
ATOM     50  O   ILE A   3      15.615  12.841  16.883  0.00  0.00    -0.273 OA
ATOM     51  N   GLY A   4      14.001  14.268  16.130  0.00  0.00    -0.295 N 
ATOM     52  H   GLY A   4      13.105  14.720  16.404  0.00  0.00    +0.150 HD
BRANCH  49  53
ATOM     53  CA  ILE A   3      13.508  12.876  17.993  0.00  0.00    +0.149 C 
BRANCH  53  55
ATOM     54  C   MET A   2      12.879  10.578  18.256  0.00  0.00    +0.241 C 
ATOM     55  N   ILE A   3      13.849  11.486  18.314  0.00  0.00    -0.297 N 
ATOM     56  H   ILE A   3      14.819  11.219  18.579  0.00  0.00    +0.150 HD
ATOM     57  O   MET A   2      11.693  10.780  18.001  0.00  0.00    -0.273 OA
BRANCH  54  58
ATOM     58  CA  MET A   2      13.307   9.145  18.532  0.00  0.00    +0.149 C 
BRANCH  58  61
ATOM     59  C   LYS A   1      12.694   8.222  20.690  0.00  0.00    +0.238 C 
ATOM     60  O   LYS A   1      13.838   8.273  21.127  0.00  0.00    -0.274 OA
ATOM     61  N   MET A   2      12.383   8.567  19.475  0.00  0.00    -0.297 N 
ATOM     62  H   MET A   2      11.402   8.416  19.163  0.00  0.00    +0.150 HD
BRANCH  59  63
ATOM     63  CA  LYS A   1      11.512   7.785  21.532  0.00  0.00    +0.145 C 
BRANCH  63  64
ATOM     64  N   LYS A   1      11.955   6.779  22.484  0.00  0.00    -0.238 NA
ATOM     65  H   LYS A   1      12.945   6.794  22.801  0.00  0.00    +0.142 HD
ENDBRANCH  63  64
BRANCH  63  66
ATOM     66  CB  LYS A   1      10.903   8.957  22.310  0.00  0.00    +0.026 C 
BRANCH  66  67
ATOM     67  CG  LYS A   1      10.175   9.934  21.390  0.00  0.00    -0.000 C 
BRANCH  67  68
ATOM     68  CD  LYS A   1       9.463  11.020  22.150  0.00  0.00    -0.024 C 
BRANCH  68  69
ATOM     69  CE  LYS A   1       8.855  12.032  21.223  0.00  0.00    -0.086 C 
BRANCH  69  70
ATOM     70  NZ  LYS A   1       7.442  11.717  20.912  0.00  0.00    +0.380 N 
ATOM     71  HZ1 LYS A   1       6.888  11.707  21.792  0.00  0.00    -0.089 HD
ATOM     72  HZ2 LYS A   1       7.388  10.784  20.457  0.00  0.00    -0.089 HD
ATOM     73  HZ3 LYS A   1       7.060  12.440  20.269  0.00  0.00    -0.089 HD
ENDBRANCH  69  70
ENDBRANCH  68  69
ENDBRANCH  67  68
ENDBRANCH  66  67
ENDBRANCH  63  66
ENDBRANCH  59  63
ENDBRANCH  58  61
BRANCH  58  74
ATOM     74  CB  MET A   2      13.264   8.343  17.226  0.00  0.00    +0.041 C 
BRANCH  74  75
ATOM     75  CG  MET A   2      14.498   8.428  16.359  0.00  0.00    +0.060 C 
BRANCH  75  76
ATOM     76  SD  MET A   2      15.769   7.270  16.886  0.00  0.00    -0.139 S 
ATOM     77  CE  MET A   2      14.978   5.697  16.539  0.00  0.00    +0.069 C 
ENDBRANCH  75  76
ENDBRANCH  74  75
ENDBRANCH  58  74
ENDBRANCH  54  58
ENDBRANCH  53  55
BRANCH  53  78
ATOM     78  CB  ILE A   3      13.561  13.774  19.235  0.00  0.00    +0.027 C 
ATOM     79  CG2 ILE A   3      12.421  13.439  20.171  0.00  0.00    +0.002 C 
BRANCH  78  80
ATOM     80  CG1 ILE A   3      14.953  13.723  19.879  0.00  0.00    +0.002 C 
ATOM     81  CD1 ILE A   3      15.060  14.782  20.948  0.00  0.00    +0.000 C 
ENDBRANCH  78  80
ENDBRANCH  53  78
ENDBRANCH  49  53
ENDBRANCH  48  51
ENDBRANCH  44  48
ENDBRANCH  43  46
ENDBRANCH   1  43
TORSDOF 36
REMARK  Name = ../refined-set-2016/2f80/2f80_pocket.pdb
REMARK  235 active torsions:
REMARK  status: ('A' for Active; 'I' for Inactive)
REMARK    1  A    between atoms: _1  and  _3
REMARK    2  A    between atoms: _3  and  _4
REMARK    3  A    between atoms: _3  and  _6
REMARK    4  A    between atoms: _6  and  _7
REMARK    5  A    between atoms: _7  and  _8
REMARK    6  A    between atoms: _8  and  _9
REMARK    7  A    between atoms: _18  and  _20
REMARK    8  A    between atoms: _20  and  _21
REMARK    9  A    between atoms: _20  and  _23
REMARK   10  A    between atoms: _23  and  _24
REMARK   11  A    between atoms: _27  and  _29
REMARK   12  A    between atoms: _29  and  _30
REMARK   13  A    between atoms: _29  and  _32
REMARK   14  A    between atoms: _32  and  _33
REMARK   15  A    between atoms: _36  and  _38
REMARK   16  A    between atoms: _38  and  _39
REMARK   17  A    between atoms: _38  and  _41
REMARK   18  A    between atoms: _41  and  _42
REMARK   19  A    between atoms: _45  and  _47
REMARK   20  A    between atoms: _47  and  _48
REMARK   21  A    between atoms: _47  and  _50
REMARK   22  A    between atoms: _50  and  _51
REMARK   23  A    between atoms: _54  and  _56
REMARK   24  A    between atoms: _56  and  _57
REMARK   25  A    between atoms: _59  and  _61
REMARK   26  A    between atoms: _61  and  _62
REMARK   27  A    between atoms: _65  and  _67
REMARK   28  A    between atoms: _67  and  _68
REMARK   29  A    between atoms: _67  and  _70
REMARK   30  A    between atoms: _70  and  _71
REMARK   31  A    between atoms: _74  and  _76
REMARK   32  A    between atoms: _76  and  _77
REMARK   33  A    between atoms: _76  and  _79
REMARK   34  A    between atoms: _79  and  _80
REMARK   35  A    between atoms: _85  and  _87
REMARK   36  A    between atoms: _87  and  _88
REMARK   37  A    between atoms: _87  and  _90
REMARK   38  A    between atoms: _90  and  _91
REMARK   39  A    between atoms: _94  and  _96
REMARK   40  A    between atoms: _96  and  _97
REMARK   41  A    between atoms: _96  and  _99
REMARK   42  A    between atoms: _102  and  _104
REMARK   43  A    between atoms: _104  and  _105
REMARK   44  A    between atoms: _104  and  _107
REMARK   45  A    between atoms: _107  and  _108
REMARK   46  A    between atoms: _111  and  _113
REMARK   47  A    between atoms: _113  and  _114
REMARK   48  A    between atoms: _113  and  _116
REMARK   49  A    between atoms: _117  and  _118
REMARK   50  A    between atoms: _118  and  _119
REMARK   51  A    between atoms: _119  and  _120
REMARK   52  A    between atoms: _124  and  _126
REMARK   53  A    between atoms: _126  and  _127
REMARK   54  A    between atoms: _126  and  _129
REMARK   55  A    between atoms: _129  and  _130
REMARK   56  A    between atoms: _130  and  _131
REMARK   57  A    between atoms: _133  and  _135
REMARK   58  A    between atoms: _135  and  _136
REMARK   59  A    between atoms: _135  and  _138
REMARK   60  A    between atoms: _138  and  _139
REMARK   61  A    between atoms: _142  and  _144
REMARK   62  A    between atoms: _144  and  _145
REMARK   63  A    between atoms: _147  and  _149
REMARK   64  A    between atoms: _149  and  _150
REMARK   65  A    between atoms: _152  and  _154
REMARK   66  A    between atoms: _154  and  _155
REMARK   67  A    between atoms: _154  and  _157
REMARK   68  A    between atoms: _157  and  _158
REMARK   69  A    between atoms: _161  and  _163
REMARK   70  A    between atoms: _163  and  _164
REMARK   71  A    between atoms: _166  and  _168
REMARK   72  A    between atoms: _168  and  _169
REMARK   73  A    between atoms: _171  and  _173
REMARK   74  A    between atoms: _173  and  _174
REMARK   75  A    between atoms: _173  and  _176
REMARK   76  A    between atoms: _176  and  _177
REMARK   77  A    between atoms: _183  and  _185
REMARK   78  A    between atoms: _185  and  _186
REMARK   79  A    between atoms: _185  and  _188
REMARK   80  A    between atoms: _188  and  _189
REMARK   81  A    between atoms: _192  and  _194
REMARK   82  A    between atoms: _194  and  _195
REMARK   83  A    between atoms: _194  and  _197
REMARK   84  A    between atoms: _200  and  _202
REMARK   85  A    between atoms: _202  and  _203
REMARK   86  A    between atoms: _202  and  _205
REMARK   87  A    between atoms: _205  and  _206
REMARK   88  A    between atoms: _209  and  _211
REMARK   89  A    between atoms: _211  and  _212
REMARK   90  A    between atoms: _211  and  _214
REMARK   91  A    between atoms: _214  and  _215
REMARK   92  A    between atoms: _219  and  _220
REMARK   93  A    between atoms: _225  and  _227
REMARK   94  A    between atoms: _227  and  _228
REMARK   95  A    between atoms: _227  and  _230
REMARK   96  A    between atoms: _233  and  _235
REMARK   97  A    between atoms: _235  and  _236
REMARK   98  A    between atoms: _235  and  _238
REMARK   99  A    between atoms: _238  and  _239
REMARK  100  A    between atoms: _244  and  _246
REMARK  101  A    between atoms: _246  and  _247
REMARK  102  A    between atoms: _246  and  _249
REMARK  103  A    between atoms: _249  and  _250
REMARK  104  A    between atoms: _253  and  _255
REMARK  105  A    between atoms: _255  and  _256
REMARK  106  A    between atoms: _255  and  _258
REMARK  107  A    between atoms: _258  and  _259
REMARK  108  A    between atoms: _262  and  _264
REMARK  109  A    between atoms: _264  and  _265
REMARK  110  A    between atoms: _267  and  _269
REMARK  111  A    between atoms: _269  and  _270
REMARK  112  A    between atoms: _269  and  _272
REMARK  113  A    between atoms: _272  and  _273
REMARK  114  A    between atoms: _273  and  _274
REMARK  115  A    between atoms: _274  and  _275
REMARK  116  A    between atoms: _284  and  _286
REMARK  117  A    between atoms: _286  and  _287
REMARK  118  A    between atoms: _286  and  _289
REMARK  119  A    between atoms: _289  and  _290
REMARK  120  A    between atoms: _295  and  _297
REMARK  121  A    between atoms: _297  and  _298
REMARK  122  A    between atoms: _297  and  _300
REMARK  123  A    between atoms: _300  and  _301
REMARK  124  A    between atoms: _301  and  _302
REMARK  125  A    between atoms: _302  and  _303
REMARK  126  A    between atoms: _312  and  _314
REMARK  127  A    between atoms: _314  and  _315
REMARK  128  A    between atoms: _314  and  _317
REMARK  129  A    between atoms: _317  and  _318
REMARK  130  A    between atoms: _321  and  _323
REMARK  131  A    between atoms: _323  and  _324
REMARK  132  A    between atoms: _323  and  _326
REMARK  133  A    between atoms: _326  and  _327
REMARK  134  A    between atoms: _330  and  _332
REMARK  135  A    between atoms: _332  and  _333
REMARK  136  A    between atoms: _332  and  _335
REMARK  137  A    between atoms: _335  and  _336
REMARK  138  A    between atoms: _339  and  _341
REMARK  139  A    between atoms: _341  and  _342
REMARK  140  A    between atoms: _341  and  _344
REMARK  141  A    between atoms: _344  and  _345
REMARK  142  A    between atoms: _348  and  _350
REMARK  143  A    between atoms: _350  and  _351
REMARK  144  A    between atoms: _353  and  _355
REMARK  145  A    between atoms: _355  and  _356
REMARK  146  A    between atoms: _359  and  _361
REMARK  147  A    between atoms: _361  and  _362
REMARK  148  A    between atoms: _361  and  _364
REMARK  149  A    between atoms: _364  and  _365
REMARK  150  A    between atoms: _368  and  _370
REMARK  151  A    between atoms: _370  and  _371
REMARK  152  A    between atoms: _370  and  _373
REMARK  153  A    between atoms: _373  and  _374
REMARK  154  A    between atoms: _379  and  _381
REMARK  155  A    between atoms: _381  and  _382
REMARK  156  A    between atoms: _381  and  _384
REMARK  157  A    between atoms: _384  and  _385
REMARK  158  A    between atoms: _388  and  _390
REMARK  159  A    between atoms: _390  and  _391
REMARK  160  A    between atoms: _390  and  _393
REMARK  161  A    between atoms: _396  and  _398
REMARK  162  A    between atoms: _398  and  _399
REMARK  163  A    between atoms: _398  and  _401
REMARK  164  A    between atoms: _401  and  _402
REMARK  165  A    between atoms: _402  and  _403
REMARK  166  A    between atoms: _403  and  _404
REMARK  167  A    between atoms: _404  and  _405
REMARK  168  A    between atoms: _409  and  _411
REMARK  169  A    between atoms: _411  and  _412
REMARK  170  A    between atoms: _411  and  _414
REMARK  171  A    between atoms: _414  and  _415
REMARK  172  A    between atoms: _415  and  _416
REMARK  173  A    between atoms: _418  and  _420
REMARK  174  A    between atoms: _420  and  _421
REMARK  175  A    between atoms: _420  and  _423
REMARK  176  A    between atoms: _423  and  _424
REMARK  177  A    between atoms: _427  and  _429
REMARK  178  A    between atoms: _429  and  _430
REMARK  179  A    between atoms: _432  and  _434
REMARK  180  A    between atoms: _434  and  _435
REMARK  181  A    between atoms: _437  and  _439
REMARK  182  A    between atoms: _439  and  _440
REMARK  183  A    between atoms: _439  and  _442
REMARK  184  A    between atoms: _442  and  _443
REMARK  185  A    between atoms: _446  and  _448
REMARK  186  A    between atoms: _448  and  _449
REMARK  187  A    between atoms: _451  and  _453
REMARK  188  A    between atoms: _453  and  _454
REMARK  189  A    between atoms: _456  and  _458
REMARK  190  A    between atoms: _458  and  _459
REMARK  191  A    between atoms: _458  and  _461
REMARK  192  A    between atoms: _461  and  _462
REMARK  193  A    between atoms: _468  and  _470
REMARK  194  A    between atoms: _470  and  _471
REMARK  195  A    between atoms: _470  and  _473
REMARK  196  A    between atoms: _473  and  _474
REMARK  197  A    between atoms: _477  and  _479
REMARK  198  A    between atoms: _479  and  _480
REMARK  199  A    between atoms: _479  and  _482
REMARK  200  A    between atoms: _485  and  _487
REMARK  201  A    between atoms: _487  and  _488
REMARK  202  A    between atoms: _487  and  _490
REMARK  203  A    between atoms: _490  and  _491
REMARK  204  A    between atoms: _494  and  _496
REMARK  205  A    between atoms: _496  and  _497
REMARK  206  A    between atoms: _496  and  _499
REMARK  207  A    between atoms: _499  and  _500
REMARK  208  A    between atoms: _504  and  _505
REMARK  209  A    between atoms: _510  and  _512
REMARK  210  A    between atoms: _512  and  _513
REMARK  211  A    between atoms: _512  and  _515
REMARK  212  A    between atoms: _518  and  _520
REMARK  213  A    between atoms: _520  and  _521
REMARK  214  A    between atoms: _520  and  _523
REMARK  215  A    between atoms: _523  and  _524
REMARK  216  A    between atoms: _529  and  _531
REMARK  217  A    between atoms: _531  and  _532
REMARK  218  A    between atoms: _531  and  _534
REMARK  219  A    between atoms: _534  and  _535
REMARK  220  A    between atoms: _538  and  _540
REMARK  221  A    between atoms: _540  and  _541
REMARK  222  A    between atoms: _540  and  _543
REMARK  223  A    between atoms: _543  and  _544
REMARK  224  A    between atoms: _547  and  _549
REMARK  225  A    between atoms: _549  and  _550
REMARK  226  A    between atoms: _552  and  _554
REMARK  227  A    between atoms: _554  and  _555
REMARK  228  A    between atoms: _554  and  _557
REMARK  229  A    between atoms: _557  and  _558
REMARK  230  A    between atoms: _558  and  _559
REMARK  231  A    between atoms: _559  and  _560
REMARK  232  A    between atoms: _569  and  _571
REMARK  233  A    between atoms: _571  and  _572
REMARK  234  A    between atoms: _571  and  _574
REMARK  235  A    between atoms: _574  and  _575
REMARK                            x       y       z     vdW  Elec       q    Type
REMARK                         _______ _______ _______ _____ _____    ______ ____
ROOT
ATOM      1  CA  VAL A   1      16.220   9.412  23.967  0.00  0.00    +0.133 C 
ENDROOT
BRANCH   1   2
ATOM      2  CB  VAL A   1      15.611  10.840  23.921  0.00  0.00    +0.023 C 
ATOM      3  CG2 VAL A   1      14.181  10.832  23.413  0.00  0.00    +0.002 C 
ATOM      4  CG1 VAL A   1      16.430  11.767  23.040  0.00  0.00    +0.002 C 
ENDBRANCH   1   2
BRANCH   1   5
ATOM      5  N   VAL A   1      16.307   8.829  22.639  0.00  0.00    -0.239 NA
ATOM      6  H   VAL A   1      15.446   8.429  22.214  0.00  0.00    +0.142 HD
ENDBRANCH   1   5
BRANCH   1   7
ATOM      7  C   VAL A   1      15.387   8.489  24.836  0.00  0.00    +0.224 C 
ATOM      8  O   VAL A   1      14.752   7.552  24.331  0.00  0.00    -0.287 OA
ENDBRANCH   1   7
TORSDOF 3
REMARK  Name = ../refined-set-2016/2f80/2f80_pocket.pdb
REMARK  235 active torsions:
REMARK  status: ('A' for Active; 'I' for Inactive)
REMARK    1  A    between atoms: _1  and  _3
REMARK    2  A    between atoms: _3  and  _4
REMARK    3  A    between atoms: _3  and  _6
REMARK    4  A    between atoms: _6  and  _7
REMARK    5  A    between atoms: _7  and  _8
REMARK    6  A    between atoms: _8  and  _9
REMARK    7  A    between atoms: _18  and  _20
REMARK    8  A    between atoms: _20  and  _21
REMARK    9  A    between atoms: _20  and  _23
REMARK   10  A    between atoms: _23  and  _24
REMARK   11  A    between atoms: _27  and  _29
REMARK   12  A    between atoms: _29  and  _30
REMARK   13  A    between atoms: _29  and  _32
REMARK   14  A    between atoms: _32  and  _33
REMARK   15  A    between atoms: _36  and  _38
REMARK   16  A    between atoms: _38  and  _39
REMARK   17  A    between atoms: _38  and  _41
REMARK   18  A    between atoms: _41  and  _42
REMARK   19  A    between atoms: _45  and  _47
REMARK   20  A    between atoms: _47  and  _48
REMARK   21  A    between atoms: _47  and  _50
REMARK   22  A    between atoms: _50  and  _51
REMARK   23  A    between atoms: _54  and  _56
REMARK   24  A    between atoms: _56  and  _57
REMARK   25  A    between atoms: _59  and  _61
REMARK   26  A    between atoms: _61  and  _62
REMARK   27  A    between atoms: _65  and  _67
REMARK   28  A    between atoms: _67  and  _68
REMARK   29  A    between atoms: _67  and  _70
REMARK   30  A    between atoms: _70  and  _71
REMARK   31  A    between atoms: _74  and  _76
REMARK   32  A    between atoms: _76  and  _77
REMARK   33  A    between atoms: _76  and  _79
REMARK   34  A    between atoms: _79  and  _80
REMARK   35  A    between atoms: _85  and  _87
REMARK   36  A    between atoms: _87  and  _88
REMARK   37  A    between atoms: _87  and  _90
REMARK   38  A    between atoms: _90  and  _91
REMARK   39  A    between atoms: _94  and  _96
REMARK   40  A    between atoms: _96  and  _97
REMARK   41  A    between atoms: _96  and  _99
REMARK   42  A    between atoms: _102  and  _104
REMARK   43  A    between atoms: _104  and  _105
REMARK   44  A    between atoms: _104  and  _107
REMARK   45  A    between atoms: _107  and  _108
REMARK   46  A    between atoms: _111  and  _113
REMARK   47  A    between atoms: _113  and  _114
REMARK   48  A    between atoms: _113  and  _116
REMARK   49  A    between atoms: _117  and  _118
REMARK   50  A    between atoms: _118  and  _119
REMARK   51  A    between atoms: _119  and  _120
REMARK   52  A    between atoms: _124  and  _126
REMARK   53  A    between atoms: _126  and  _127
REMARK   54  A    between atoms: _126  and  _129
REMARK   55  A    between atoms: _129  and  _130
REMARK   56  A    between atoms: _130  and  _131
REMARK   57  A    between atoms: _133  and  _135
REMARK   58  A    between atoms: _135  and  _136
REMARK   59  A    between atoms: _135  and  _138
REMARK   60  A    between atoms: _138  and  _139
REMARK   61  A    between atoms: _142  and  _144
REMARK   62  A    between atoms: _144  and  _145
REMARK   63  A    between atoms: _147  and  _149
REMARK   64  A    between atoms: _149  and  _150
REMARK   65  A    between atoms: _152  and  _154
REMARK   66  A    between atoms: _154  and  _155
REMARK   67  A    between atoms: _154  and  _157
REMARK   68  A    between atoms: _157  and  _158
REMARK   69  A    between atoms: _161  and  _163
REMARK   70  A    between atoms: _163  and  _164
REMARK   71  A    between atoms: _166  and  _168
REMARK   72  A    between atoms: _168  and  _169
REMARK   73  A    between atoms: _171  and  _173
REMARK   74  A    between atoms: _173  and  _174
REMARK   75  A    between atoms: _173  and  _176
REMARK   76  A    between atoms: _176  and  _177
REMARK   77  A    between atoms: _183  and  _185
REMARK   78  A    between atoms: _185  and  _186
REMARK   79  A    between atoms: _185  and  _188
REMARK   80  A    between atoms: _188  and  _189
REMARK   81  A    between atoms: _192  and  _194
REMARK   82  A    between atoms: _194  and  _195
REMARK   83  A    between atoms: _194  and  _197
REMARK   84  A    between atoms: _200  and  _202
REMARK   85  A    between atoms: _202  and  _203
REMARK   86  A    between atoms: _202  and  _205
REMARK   87  A    between atoms: _205  and  _206
REMARK   88  A    between atoms: _209  and  _211
REMARK   89  A    between atoms: _211  and  _212
REMARK   90  A    between atoms: _211  and  _214
REMARK   91  A    between atoms: _214  and  _215
REMARK   92  A    between atoms: _219  and  _220
REMARK   93  A    between atoms: _225  and  _227
REMARK   94  A    between atoms: _227  and  _228
REMARK   95  A    between atoms: _227  and  _230
REMARK   96  A    between atoms: _233  and  _235
REMARK   97  A    between atoms: _235  and  _236
REMARK   98  A    between atoms: _235  and  _238
REMARK   99  A    between atoms: _238  and  _239
REMARK  100  A    between atoms: _244  and  _246
REMARK  101  A    between atoms: _246  and  _247
REMARK  102  A    between atoms: _246  and  _249
REMARK  103  A    between atoms: _249  and  _250
REMARK  104  A    between atoms: _253  and  _255
REMARK  105  A    between atoms: _255  and  _256
REMARK  106  A    between atoms: _255  and  _258
REMARK  107  A    between atoms: _258  and  _259
REMARK  108  A    between atoms: _262  and  _264
REMARK  109  A    between atoms: _264  and  _265
REMARK  110  A    between atoms: _267  and  _269
REMARK  111  A    between atoms: _269  and  _270
REMARK  112  A    between atoms: _269  and  _272
REMARK  113  A    between atoms: _272  and  _273
REMARK  114  A    between atoms: _273  and  _274
REMARK  115  A    between atoms: _274  and  _275
REMARK  116  A    between atoms: _284  and  _286
REMARK  117  A    between atoms: _286  and  _287
REMARK  118  A    between atoms: _286  and  _289
REMARK  119  A    between atoms: _289  and  _290
REMARK  120  A    between atoms: _295  and  _297
REMARK  121  A    between atoms: _297  and  _298
REMARK  122  A    between atoms: _297  and  _300
REMARK  123  A    between atoms: _300  and  _301
REMARK  124  A    between atoms: _301  and  _302
REMARK  125  A    between atoms: _302  and  _303
REMARK  126  A    between atoms: _312  and  _314
REMARK  127  A    between atoms: _314  and  _315
REMARK  128  A    between atoms: _314  and  _317
REMARK  129  A    between atoms: _317  and  _318
REMARK  130  A    between atoms: _321  and  _323
REMARK  131  A    between atoms: _323  and  _324
REMARK  132  A    between atoms: _323  and  _326
REMARK  133  A    between atoms: _326  and  _327
REMARK  134  A    between atoms: _330  and  _332
REMARK  135  A    between atoms: _332  and  _333
REMARK  136  A    between atoms: _332  and  _335
REMARK  137  A    between atoms: _335  and  _336
REMARK  138  A    between atoms: _339  and  _341
REMARK  139  A    between atoms: _341  and  _342
REMARK  140  A    between atoms: _341  and  _344
REMARK  141  A    between atoms: _344  and  _345
REMARK  142  A    between atoms: _348  and  _350
REMARK  143  A    between atoms: _350  and  _351
REMARK  144  A    between atoms: _353  and  _355
REMARK  145  A    between atoms: _355  and  _356
REMARK  146  A    between atoms: _359  and  _361
REMARK  147  A    between atoms: _361  and  _362
REMARK  148  A    between atoms: _361  and  _364
REMARK  149  A    between atoms: _364  and  _365
REMARK  150  A    between atoms: _368  and  _370
REMARK  151  A    between atoms: _370  and  _371
REMARK  152  A    between atoms: _370  and  _373
REMARK  153  A    between atoms: _373  and  _374
REMARK  154  A    between atoms: _379  and  _381
REMARK  155  A    between atoms: _381  and  _382
REMARK  156  A    between atoms: _381  and  _384
REMARK  157  A    between atoms: _384  and  _385
REMARK  158  A    between atoms: _388  and  _390
REMARK  159  A    between atoms: _390  and  _391
REMARK  160  A    between atoms: _390  and  _393
REMARK  161  A    between atoms: _396  and  _398
REMARK  162  A    between atoms: _398  and  _399
REMARK  163  A    between atoms: _398  and  _401
REMARK  164  A    between atoms: _401  and  _402
REMARK  165  A    between atoms: _402  and  _403
REMARK  166  A    between atoms: _403  and  _404
REMARK  167  A    between atoms: _404  and  _405
REMARK  168  A    between atoms: _409  and  _411
REMARK  169  A    between atoms: _411  and  _412
REMARK  170  A    between atoms: _411  and  _414
REMARK  171  A    between atoms: _414  and  _415
REMARK  172  A    between atoms: _415  and  _416
REMARK  173  A    between atoms: _418  and  _420
REMARK  174  A    between atoms: _420  and  _421
REMARK  175  A    between atoms: _420  and  _423
REMARK  176  A    between atoms: _423  and  _424
REMARK  177  A    between atoms: _427  and  _429
REMARK  178  A    between atoms: _429  and  _430
REMARK  179  A    between atoms: _432  and  _434
REMARK  180  A    between atoms: _434  and  _435
REMARK  181  A    between atoms: _437  and  _439
REMARK  182  A    between atoms: _439  and  _440
REMARK  183  A    between atoms: _439  and  _442
REMARK  184  A    between atoms: _442  and  _443
REMARK  185  A    between atoms: _446  and  _448
REMARK  186  A    between atoms: _448  and  _449
REMARK  187  A    between atoms: _451  and  _453
REMARK  188  A    between atoms: _453  and  _454
REMARK  189  A    between atoms: _456  and  _458
REMARK  190  A    between atoms: _458  and  _459
REMARK  191  A    between atoms: _458  and  _461
REMARK  192  A    between atoms: _461  and  _462
REMARK  193  A    between atoms: _468  and  _470
REMARK  194  A    between atoms: _470  and  _471
REMARK  195  A    between atoms: _470  and  _473
REMARK  196  A    between atoms: _473  and  _474
REMARK  197  A    between atoms: _477  and  _479
REMARK  198  A    between atoms: _479  and  _480
REMARK  199  A    between atoms: _479  and  _482
REMARK  200  A    between atoms: _485  and  _487
REMARK  201  A    between atoms: _487  and  _488
REMARK  202  A    between atoms: _487  and  _490
REMARK  203  A    between atoms: _490  and  _491
REMARK  204  A    between atoms: _494  and  _496
REMARK  205  A    between atoms: _496  and  _497
REMARK  206  A    between atoms: _496  and  _499
REMARK  207  A    between atoms: _499  and  _500
REMARK  208  A    between atoms: _504  and  _505
REMARK  209  A    between atoms: _510  and  _512
REMARK  210  A    between atoms: _512  and  _513
REMARK  211  A    between atoms: _512  and  _515
REMARK  212  A    between atoms: _518  and  _520
REMARK  213  A    between atoms: _520  and  _521
REMARK  214  A    between atoms: _520  and  _523
REMARK  215  A    between atoms: _523  and  _524
REMARK  216  A    between atoms: _529  and  _531
REMARK  217  A    between atoms: _531  and  _532
REMARK  218  A    between atoms: _531  and  _534
REMARK  219  A    between atoms: _534  and  _535
REMARK  220  A    between atoms: _538  and  _540
REMARK  221  A    between atoms: _540  and  _541
REMARK  222  A    between atoms: _540  and  _543
REMARK  223  A    between atoms: _543  and  _544
REMARK  224  A    between atoms: _547  and  _549
REMARK  225  A    between atoms: _549  and  _550
REMARK  226  A    between atoms: _552  and  _554
REMARK  227  A    between atoms: _554  and  _555
REMARK  228  A    between atoms: _554  and  _557
REMARK  229  A    between atoms: _557  and  _558
REMARK  230  A    between atoms: _558  and  _559
REMARK  231  A    between atoms: _559  and  _560
REMARK  232  A    between atoms: _569  and  _571
REMARK  233  A    between atoms: _571  and  _572
REMARK  234  A    between atoms: _571  and  _574
REMARK  235  A    between atoms: _574  and  _575
REMARK                            x       y       z     vdW  Elec       q    Type
REMARK                         _______ _______ _______ _____ _____    ______ ____
ROOT
ATOM      1  CA  LEU A   1      13.212  13.276  27.391  0.00  0.00    +0.133 C 
ENDROOT
BRANCH   1   2
ATOM      2  N   LEU A   1      12.329  14.146  28.163  0.00  0.00    -0.239 NA
ATOM      3  H   LEU A   1      12.163  15.115  27.824  0.00  0.00    +0.142 HD
ENDBRANCH   1   2
BRANCH   1   4
ATOM      4  C   LEU A   1      14.663  13.477  27.855  0.00  0.00    +0.224 C 
ATOM      5  O   LEU A   1      15.076  14.605  28.088  0.00  0.00    -0.287 OA
ENDBRANCH   1   4
BRANCH   1   6
ATOM      6  CB  LEU A   1      13.112  13.541  25.877  0.00  0.00    +0.025 C 
BRANCH   6   7
ATOM      7  CG  LEU A   1      11.680  13.597  25.330  0.00  0.00    +0.002 C 
ATOM      8  CD2 LEU A   1      10.885  12.344  25.653  0.00  0.00    +0.000 C 
ATOM      9  CD1 LEU A   1      11.676  13.937  23.836  0.00  0.00    +0.000 C 
ENDBRANCH   6   7
ENDBRANCH   1   6
TORSDOF 4
REMARK  Name = ../refined-set-2016/2f80/2f80_pocket.pdb
REMARK  235 active torsions:
REMARK  status: ('A' for Active; 'I' for Inactive)
REMARK    1  A    between atoms: _1  and  _3
REMARK    2  A    between atoms: _3  and  _4
REMARK    3  A    between atoms: _3  and  _6
REMARK    4  A    between atoms: _6  and  _7
REMARK    5  A    between atoms: _7  and  _8
REMARK    6  A    between atoms: _8  and  _9
REMARK    7  A    between atoms: _18  and  _20
REMARK    8  A    between atoms: _20  and  _21
REMARK    9  A    between atoms: _20  and  _23
REMARK   10  A    between atoms: _23  and  _24
REMARK   11  A    between atoms: _27  and  _29
REMARK   12  A    between atoms: _29  and  _30
REMARK   13  A    between atoms: _29  and  _32
REMARK   14  A    between atoms: _32  and  _33
REMARK   15  A    between atoms: _36  and  _38
REMARK   16  A    between atoms: _38  and  _39
REMARK   17  A    between atoms: _38  and  _41
REMARK   18  A    between atoms: _41  and  _42
REMARK   19  A    between atoms: _45  and  _47
REMARK   20  A    between atoms: _47  and  _48
REMARK   21  A    between atoms: _47  and  _50
REMARK   22  A    between atoms: _50  and  _51
REMARK   23  A    between atoms: _54  and  _56
REMARK   24  A    between atoms: _56  and  _57
REMARK   25  A    between atoms: _59  and  _61
REMARK   26  A    between atoms: _61  and  _62
REMARK   27  A    between atoms: _65  and  _67
REMARK   28  A    between atoms: _67  and  _68
REMARK   29  A    between atoms: _67  and  _70
REMARK   30  A    between atoms: _70  and  _71
REMARK   31  A    between atoms: _74  and  _76
REMARK   32  A    between atoms: _76  and  _77
REMARK   33  A    between atoms: _76  and  _79
REMARK   34  A    between atoms: _79  and  _80
REMARK   35  A    between atoms: _85  and  _87
REMARK   36  A    between atoms: _87  and  _88
REMARK   37  A    between atoms: _87  and  _90
REMARK   38  A    between atoms: _90  and  _91
REMARK   39  A    between atoms: _94  and  _96
REMARK   40  A    between atoms: _96  and  _97
REMARK   41  A    between atoms: _96  and  _99
REMARK   42  A    between atoms: _102  and  _104
REMARK   43  A    between atoms: _104  and  _105
REMARK   44  A    between atoms: _104  and  _107
REMARK   45  A    between atoms: _107  and  _108
REMARK   46  A    between atoms: _111  and  _113
REMARK   47  A    between atoms: _113  and  _114
REMARK   48  A    between atoms: _113  and  _116
REMARK   49  A    between atoms: _117  and  _118
REMARK   50  A    between atoms: _118  and  _119
REMARK   51  A    between atoms: _119  and  _120
REMARK   52  A    between atoms: _124  and  _126
REMARK   53  A    between atoms: _126  and  _127
REMARK   54  A    between atoms: _126  and  _129
REMARK   55  A    between atoms: _129  and  _130
REMARK   56  A    between atoms: _130  and  _131
REMARK   57  A    between atoms: _133  and  _135
REMARK   58  A    between atoms: _135  and  _136
REMARK   59  A    between atoms: _135  and  _138
REMARK   60  A    between atoms: _138  and  _139
REMARK   61  A    between atoms: _142  and  _144
REMARK   62  A    between atoms: _144  and  _145
REMARK   63  A    between atoms: _147  and  _149
REMARK   64  A    between atoms: _149  and  _150
REMARK   65  A    between atoms: _152  and  _154
REMARK   66  A    between atoms: _154  and  _155
REMARK   67  A    between atoms: _154  and  _157
REMARK   68  A    between atoms: _157  and  _158
REMARK   69  A    between atoms: _161  and  _163
REMARK   70  A    between atoms: _163  and  _164
REMARK   71  A    between atoms: _166  and  _168
REMARK   72  A    between atoms: _168  and  _169
REMARK   73  A    between atoms: _171  and  _173
REMARK   74  A    between atoms: _173  and  _174
REMARK   75  A    between atoms: _173  and  _176
REMARK   76  A    between atoms: _176  and  _177
REMARK   77  A    between atoms: _183  and  _185
REMARK   78  A    between atoms: _185  and  _186
REMARK   79  A    between atoms: _185  and  _188
REMARK   80  A    between atoms: _188  and  _189
REMARK   81  A    between atoms: _192  and  _194
REMARK   82  A    between atoms: _194  and  _195
REMARK   83  A    between atoms: _194  and  _197
REMARK   84  A    between atoms: _200  and  _202
REMARK   85  A    between atoms: _202  and  _203
REMARK   86  A    between atoms: _202  and  _205
REMARK   87  A    between atoms: _205  and  _206
REMARK   88  A    between atoms: _209  and  _211
REMARK   89  A    between atoms: _211  and  _212
REMARK   90  A    between atoms: _211  and  _214
REMARK   91  A    between atoms: _214  and  _215
REMARK   92  A    between atoms: _219  and  _220
REMARK   93  A    between atoms: _225  and  _227
REMARK   94  A    between atoms: _227  and  _228
REMARK   95  A    between atoms: _227  and  _230
REMARK   96  A    between atoms: _233  and  _235
REMARK   97  A    between atoms: _235  and  _236
REMARK   98  A    between atoms: _235  and  _238
REMARK   99  A    between atoms: _238  and  _239
REMARK  100  A    between atoms: _244  and  _246
REMARK  101  A    between atoms: _246  and  _247
REMARK  102  A    between atoms: _246  and  _249
REMARK  103  A    between atoms: _249  and  _250
REMARK  104  A    between atoms: _253  and  _255
REMARK  105  A    between atoms: _255  and  _256
REMARK  106  A    between atoms: _255  and  _258
REMARK  107  A    between atoms: _258  and  _259
REMARK  108  A    between atoms: _262  and  _264
REMARK  109  A    between atoms: _264  and  _265
REMARK  110  A    between atoms: _267  and  _269
REMARK  111  A    between atoms: _269  and  _270
REMARK  112  A    between atoms: _269  and  _272
REMARK  113  A    between atoms: _272  and  _273
REMARK  114  A    between atoms: _273  and  _274
REMARK  115  A    between atoms: _274  and  _275
REMARK  116  A    between atoms: _284  and  _286
REMARK  117  A    between atoms: _286  and  _287
REMARK  118  A    between atoms: _286  and  _289
REMARK  119  A    between atoms: _289  and  _290
REMARK  120  A    between atoms: _295  and  _297
REMARK  121  A    between atoms: _297  and  _298
REMARK  122  A    between atoms: _297  and  _300
REMARK  123  A    between atoms: _300  and  _301
REMARK  124  A    between atoms: _301  and  _302
REMARK  125  A    between atoms: _302  and  _303
REMARK  126  A    between atoms: _312  and  _314
REMARK  127  A    between atoms: _314  and  _315
REMARK  128  A    between atoms: _314  and  _317
REMARK  129  A    between atoms: _317  and  _318
REMARK  130  A    between atoms: _321  and  _323
REMARK  131  A    between atoms: _323  and  _324
REMARK  132  A    between atoms: _323  and  _326
REMARK  133  A    between atoms: _326  and  _327
REMARK  134  A    between atoms: _330  and  _332
REMARK  135  A    between atoms: _332  and  _333
REMARK  136  A    between atoms: _332  and  _335
REMARK  137  A    between atoms: _335  and  _336
REMARK  138  A    between atoms: _339  and  _341
REMARK  139  A    between atoms: _341  and  _342
REMARK  140  A    between atoms: _341  and  _344
REMARK  141  A    between atoms: _344  and  _345
REMARK  142  A    between atoms: _348  and  _350
REMARK  143  A    between atoms: _350  and  _351
REMARK  144  A    between atoms: _353  and  _355
REMARK  145  A    between atoms: _355  and  _356
REMARK  146  A    between atoms: _359  and  _361
REMARK  147  A    between atoms: _361  and  _362
REMARK  148  A    between atoms: _361  and  _364
REMARK  149  A    between atoms: _364  and  _365
REMARK  150  A    between atoms: _368  and  _370
REMARK  151  A    between atoms: _370  and  _371
REMARK  152  A    between atoms: _370  and  _373
REMARK  153  A    between atoms: _373  and  _374
REMARK  154  A    between atoms: _379  and  _381
REMARK  155  A    between atoms: _381  and  _382
REMARK  156  A    between atoms: _381  and  _384
REMARK  157  A    between atoms: _384  and  _385
REMARK  158  A    between atoms: _388  and  _390
REMARK  159  A    between atoms: _390  and  _391
REMARK  160  A    between atoms: _390  and  _393
REMARK  161  A    between atoms: _396  and  _398
REMARK  162  A    between atoms: _398  and  _399
REMARK  163  A    between atoms: _398  and  _401
REMARK  164  A    between atoms: _401  and  _402
REMARK  165  A    between atoms: _402  and  _403
REMARK  166  A    between atoms: _403  and  _404
REMARK  167  A    between atoms: _404  and  _405
REMARK  168  A    between atoms: _409  and  _411
REMARK  169  A    between atoms: _411  and  _412
REMARK  170  A    between atoms: _411  and  _414
REMARK  171  A    between atoms: _414  and  _415
REMARK  172  A    between atoms: _415  and  _416
REMARK  173  A    between atoms: _418  and  _420
REMARK  174  A    between atoms: _420  and  _421
REMARK  175  A    between atoms: _420  and  _423
REMARK  176  A    between atoms: _423  and  _424
REMARK  177  A    between atoms: _427  and  _429
REMARK  178  A    between atoms: _429  and  _430
REMARK  179  A    between atoms: _432  and  _434
REMARK  180  A    between atoms: _434  and  _435
REMARK  181  A    between atoms: _437  and  _439
REMARK  182  A    between atoms: _439  and  _440
REMARK  183  A    between atoms: _439  and  _442
REMARK  184  A    between atoms: _442  and  _443
REMARK  185  A    between atoms: _446  and  _448
REMARK  186  A    between atoms: _448  and  _449
REMARK  187  A    between atoms: _451  and  _453
REMARK  188  A    between atoms: _453  and  _454
REMARK  189  A    between atoms: _456  and  _458
REMARK  190  A    between atoms: _458  and  _459
REMARK  191  A    between atoms: _458  and  _461
REMARK  192  A    between atoms: _461  and  _462
REMARK  193  A    between atoms: _468  and  _470
REMARK  194  A    between atoms: _470  and  _471
REMARK  195  A    between atoms: _470  and  _473
REMARK  196  A    between atoms: _473  and  _474
REMARK  197  A    between atoms: _477  and  _479
REMARK  198  A    between atoms: _479  and  _480
REMARK  199  A    between atoms: _479  and  _482
REMARK  200  A    between atoms: _485  and  _487
REMARK  201  A    between atoms: _487  and  _488
REMARK  202  A    between atoms: _487  and  _490
REMARK  203  A    between atoms: _490  and  _491
REMARK  204  A    between atoms: _494  and  _496
REMARK  205  A    between atoms: _496  and  _497
REMARK  206  A    between atoms: _496  and  _499
REMARK  207  A    between atoms: _499  and  _500
REMARK  208  A    between atoms: _504  and  _505
REMARK  209  A    between atoms: _510  and  _512
REMARK  210  A    between atoms: _512  and  _513
REMARK  211  A    between atoms: _512  and  _515
REMARK  212  A    between atoms: _518  and  _520
REMARK  213  A    between atoms: _520  and  _521
REMARK  214  A    between atoms: _520  and  _523
REMARK  215  A    between atoms: _523  and  _524
REMARK  216  A    between atoms: _529  and  _531
REMARK  217  A    between atoms: _531  and  _532
REMARK  218  A    between atoms: _531  and  _534
REMARK  219  A    between atoms: _534  and  _535
REMARK  220  A    between atoms: _538  and  _540
REMARK  221  A    between atoms: _540  and  _541
REMARK  222  A    between atoms: _540  and  _543
REMARK  223  A    between atoms: _543  and  _544
REMARK  224  A    between atoms: _547  and  _549
REMARK  225  A    between atoms: _549  and  _550
REMARK  226  A    between atoms: _552  and  _554
REMARK  227  A    between atoms: _554  and  _555
REMARK  228  A    between atoms: _554  and  _557
REMARK  229  A    between atoms: _557  and  _558
REMARK  230  A    between atoms: _558  and  _559
REMARK  231  A    between atoms: _559  and  _560
REMARK  232  A    between atoms: _569  and  _571
REMARK  233  A    between atoms: _571  and  _572
REMARK  234  A    between atoms: _571  and  _574
REMARK  235  A    between atoms: _574  and  _575
REMARK                            x       y       z     vdW  Elec       q    Type
REMARK                         _______ _______ _______ _____ _____    ______ ____
ROOT
ATOM      1  C   ILE A   5      14.359  22.251  26.836  0.00  0.00    +0.241 C 
ATOM      2  N   ILE A   6      13.654  23.338  27.125  0.00  0.00    -0.297 N 
ATOM      3  H   ILE A   6      14.103  24.269  27.010  0.00  0.00    +0.150 HD
ATOM      4  O   ILE A   5      13.970  21.113  27.085  0.00  0.00    -0.273 OA
ENDROOT
BRANCH   1   5
ATOM      5  CA  ILE A   5      15.745  22.525  26.223  0.00  0.00    +0.149 C 
BRANCH   5   8
ATOM      6  C   ASN A   4      17.832  22.364  27.459  0.00  0.00    +0.241 C 
ATOM      7  O   ASN A   4      18.037  23.577  27.439  0.00  0.00    -0.273 OA
ATOM      8  N   ILE A   5      16.776  21.767  26.934  0.00  0.00    -0.297 N 
ATOM      9  H   ILE A   5      16.675  20.736  27.028  0.00  0.00    +0.150 HD
BRANCH   6  10
ATOM     10  CA  ASN A   4      18.869  21.449  28.103  0.00  0.00    +0.158 C 
BRANCH  10  12
ATOM     11  C   VAL A   3      20.453  21.466  26.268  0.00  0.00    +0.241 C 
ATOM     12  N   ASN A   4      20.178  21.747  27.521  0.00  0.00    -0.297 N 
ATOM     13  H   ASN A   4      20.908  22.192  28.114  0.00  0.00    +0.150 HD
ATOM     14  O   VAL A   3      19.732  20.813  25.521  0.00  0.00    -0.273 OA
BRANCH  11  15
ATOM     15  CA  VAL A   3      21.794  22.015  25.766  0.00  0.00    +0.149 C 
BRANCH  15  18
ATOM     16  C   PRO A   2      23.510  20.783  24.487  0.00  0.00    +0.241 C 
ATOM     17  O   PRO A   2      24.440  21.305  25.098  0.00  0.00    -0.273 OA
ATOM     18  N   VAL A   3      22.253  21.099  24.722  0.00  0.00    -0.297 N 
ATOM     19  H   VAL A   3      21.529  20.662  24.117  0.00  0.00    +0.150 HD
BRANCH  16  23
ATOM     20  C   THR A   1      22.374  17.912  23.876  0.00  0.00    +0.244 C 
ATOM     21  O   THR A   1      23.000  17.779  24.935  0.00  0.00    -0.273 OA
ATOM     22  N   PRO A   2      22.734  18.867  23.013  0.00  0.00    -0.272 N 
ATOM     23  CA  PRO A   2      23.810  19.781  23.375  0.00  0.00    +0.152 C 
ATOM     24  CB  PRO A   2      23.998  20.593  22.098  0.00  0.00    +0.031 C 
ATOM     25  CG  PRO A   2      23.306  19.838  21.008  0.00  0.00    +0.024 C 
ATOM     26  CD  PRO A   2      22.208  19.092  21.656  0.00  0.00    +0.094 C 
BRANCH  20  27
ATOM     27  CA  THR A   1      21.200  17.004  23.529  0.00  0.00    +0.172 C 
BRANCH  27  28
ATOM     28  N   THR A   1      21.473  15.675  24.071  0.00  0.00    -0.236 NA
ATOM     29  H   THR A   1      21.044  15.383  24.972  0.00  0.00    +0.142 HD
ENDBRANCH  27  28
BRANCH  27  30
ATOM     30  CB  THR A   1      19.860  17.593  24.022  0.00  0.00    +0.135 C 
ATOM     31  CG2 THR A   1      19.749  17.579  25.545  0.00  0.00    +0.034 C 
BRANCH  30  32
ATOM     32  OG1 THR A   1      19.711  18.956  23.581  0.00  0.00    -0.383 OA
ATOM     33  HG1 THR A   1      20.454  19.502  23.943  0.00  0.00    +0.210 HD
ENDBRANCH  30  32
ENDBRANCH  27  30
ENDBRANCH  20  27
ENDBRANCH  16  23
ENDBRANCH  15  18
BRANCH  15  34
ATOM     34  CB  VAL A   3      21.633  23.502  25.397  0.00  0.00    +0.027 C 
ATOM     35  CG2 VAL A   3      22.946  24.014  24.795  0.00  0.00    +0.002 C 
ATOM     36  CG1 VAL A   3      20.475  23.761  24.442  0.00  0.00    +0.002 C 
ENDBRANCH  15  34
ENDBRANCH  11  15
ENDBRANCH  10  12
BRANCH  10  37
ATOM     37  CB  ASN A   4      18.864  21.630  29.615  0.00  0.00    +0.114 C 
BRANCH  37  38
ATOM     38  CG  ASN A   4      19.823  20.746  30.359  0.00  0.00    +0.222 C 
ATOM     39  ND2 ASN A   4      20.503  21.218  31.386  0.00  0.00    -0.329 N 
ATOM     40 HD21 ASN A   4      21.173  20.605  31.892  0.00  0.00    +0.145 HD
ATOM     41 HD22 ASN A   4      20.369  22.204  31.690  0.00  0.00    +0.145 HD
ATOM     42  OD1 ASN A   4      19.983  19.575  29.999  0.00  0.00    -0.275 OA
ENDBRANCH  37  38
ENDBRANCH  10  37
ENDBRANCH   6  10
ENDBRANCH   5   8
BRANCH   5  43
ATOM     43  CB  ILE A   5      15.703  22.024  24.775  0.00  0.00    +0.027 C 
ATOM     44  CG2 ILE A   5      14.371  22.280  24.101  0.00  0.00    +0.002 C 
BRANCH  43  45
ATOM     45  CG1 ILE A   5      16.847  22.556  23.910  0.00  0.00    +0.002 C 
ATOM     46  CD1 ILE A   5      17.516  21.442  23.170  0.00  0.00    +0.000 C 
ENDBRANCH  43  45
ENDBRANCH   5  43
ENDBRANCH   1   5
BRANCH   2  47
ATOM     47  CA  ILE A   6      12.279  23.279  27.596  0.00  0.00    +0.149 C 
BRANCH  47  48
ATOM     48  C   ILE A   6      11.394  23.525  26.387  0.00  0.00    +0.241 C 
ATOM     49  N   GLY A   7      10.641  22.489  26.031  0.00  0.00    -0.295 N 
ATOM     50  H   GLY A   7      10.678  21.620  26.601  0.00  0.00    +0.150 HD
ATOM     51  O   ILE A   6      11.469  24.609  25.794  0.00  0.00    -0.273 OA
BRANCH  49  52
ATOM     52  CA  GLY A   7       9.769  22.532  24.871  0.00  0.00    +0.176 C 
BRANCH  52  53
ATOM     53  C   GLY A   7       8.329  22.846  25.204  0.00  0.00    +0.243 C 
ATOM     54  O   GLY A   7       8.009  23.088  26.358  0.00  0.00    -0.273 OA
ATOM     55  N   ARG A   8       7.528  22.878  24.126  0.00  0.00    -0.297 N 
ATOM     56  H   ARG A   8       7.882  22.550  23.205  0.00  0.00    +0.150 HD
BRANCH  55  57
ATOM     57  CA  ARG A   8       6.170  23.369  24.247  0.00  0.00    +0.149 C 
BRANCH  57  58
ATOM     58  C   ARG A   8       5.371  22.554  25.238  0.00  0.00    +0.241 C 
ATOM     59  O   ARG A   8       4.465  23.125  25.893  0.00  0.00    -0.273 OA
ATOM     60  N   ASN A   9       5.670  21.265  25.410  0.00  0.00    -0.298 N 
ATOM     61  H   ASN A   9       6.446  20.825  24.876  0.00  0.00    +0.150 HD
BRANCH  60  62
ATOM     62  CA  ASN A   9       4.892  20.491  26.356  0.00  0.00    +0.146 C 
BRANCH  62  63
ATOM     63  C   ASN A   9       4.955  21.092  27.762  0.00  0.00    +0.227 C 
ATOM     64  O   ASN A   9       3.930  21.008  28.486  0.00  0.00    -0.286 OA
ENDBRANCH  62  63
BRANCH  62  65
ATOM     65  CB  ASN A   9       5.332  19.042  26.368  0.00  0.00    +0.112 C 
BRANCH  65  66
ATOM     66  CG  ASN A   9       6.665  18.798  27.057  0.00  0.00    +0.222 C 
ATOM     67  ND2 ASN A   9       6.596  17.905  28.044  0.00  0.00    -0.329 N 
ATOM     68 HD21 ASN A   9       7.449  17.664  28.587  0.00  0.00    +0.145 HD
ATOM     69 HD22 ASN A   9       5.689  17.450  28.271  0.00  0.00    +0.145 HD
ATOM     70  OD1 ASN A   9       7.669  19.412  26.682  0.00  0.00    -0.275 OA
ENDBRANCH  65  66
ENDBRANCH  62  65
ENDBRANCH  60  62
ENDBRANCH  57  58
BRANCH  57  71
ATOM     71  CB  ARG A   8       5.505  23.429  22.864  0.00  0.00    +0.033 C 
BRANCH  71  72
ATOM     72  CG  ARG A   8       6.115  24.487  21.948  0.00  0.00    +0.045 C 
BRANCH  72  73
ATOM     73  CD  ARG A   8       5.347  24.692  20.643  0.00  0.00    +0.174 C 
BRANCH  73  74
ATOM     74  NE  ARG A   8       5.340  23.451  19.869  0.00  0.00    -0.265 N 
ATOM     75  CZ  ARG A   8       4.413  22.506  19.869  0.00  0.00    +0.342 C 
ATOM     76  NH2 ARG A   8       3.290  22.562  20.568  0.00  0.00    -0.292 N 
ATOM     77 HH21 ARG A   8       3.091  23.388  21.167  0.00  0.00    +0.255 HD
ATOM     78 HH22 ARG A   8       2.607  21.780  20.518  0.00  0.00    +0.255 HD
ATOM     79  NH1 ARG A   8       4.531  21.405  19.133  0.00  0.00    -0.292 N 
ATOM     80 HH11 ARG A   8       3.784  20.682  19.156  0.00  0.00    +0.255 HD
ATOM     81 HH12 ARG A   8       5.370  21.267  18.534  0.00  0.00    +0.255 HD
ATOM     82  HE  ARG A   8       6.158  23.293  19.247  0.00  0.00    +0.259 HD
ENDBRANCH  73  74
ENDBRANCH  72  73
ENDBRANCH  71  72
ENDBRANCH  57  71
ENDBRANCH  55  57
ENDBRANCH  52  53
ENDBRANCH  49  52
ENDBRANCH  47  48
BRANCH  47  83
ATOM     83  CB  ILE A   6      12.001  24.336  28.669  0.00  0.00    +0.027 C 
ATOM     84  CG2 ILE A   6      10.541  24.244  29.088  0.00  0.00    +0.002 C 
BRANCH  83  85
ATOM     85  CG1 ILE A   6      12.954  24.248  29.840  0.00  0.00    +0.002 C 
ATOM     86  CD1 ILE A   6      13.010  22.870  30.437  0.00  0.00    +0.000 C 
ENDBRANCH  83  85
ENDBRANCH  47  83
ENDBRANCH   2  47
TORSDOF 32
REMARK  Name = ../refined-set-2016/2f80/2f80_pocket.pdb
REMARK  235 active torsions:
REMARK  status: ('A' for Active; 'I' for Inactive)
REMARK    1  A    between atoms: _1  and  _3
REMARK    2  A    between atoms: _3  and  _4
REMARK    3  A    between atoms: _3  and  _6
REMARK    4  A    between atoms: _6  and  _7
REMARK    5  A    between atoms: _7  and  _8
REMARK    6  A    between atoms: _8  and  _9
REMARK    7  A    between atoms: _18  and  _20
REMARK    8  A    between atoms: _20  and  _21
REMARK    9  A    between atoms: _20  and  _23
REMARK   10  A    between atoms: _23  and  _24
REMARK   11  A    between atoms: _27  and  _29
REMARK   12  A    between atoms: _29  and  _30
REMARK   13  A    between atoms: _29  and  _32
REMARK   14  A    between atoms: _32  and  _33
REMARK   15  A    between atoms: _36  and  _38
REMARK   16  A    between atoms: _38  and  _39
REMARK   17  A    between atoms: _38  and  _41
REMARK   18  A    between atoms: _41  and  _42
REMARK   19  A    between atoms: _45  and  _47
REMARK   20  A    between atoms: _47  and  _48
REMARK   21  A    between atoms: _47  and  _50
REMARK   22  A    between atoms: _50  and  _51
REMARK   23  A    between atoms: _54  and  _56
REMARK   24  A    between atoms: _56  and  _57
REMARK   25  A    between atoms: _59  and  _61
REMARK   26  A    between atoms: _61  and  _62
REMARK   27  A    between atoms: _65  and  _67
REMARK   28  A    between atoms: _67  and  _68
REMARK   29  A    between atoms: _67  and  _70
REMARK   30  A    between atoms: _70  and  _71
REMARK   31  A    between atoms: _74  and  _76
REMARK   32  A    between atoms: _76  and  _77
REMARK   33  A    between atoms: _76  and  _79
REMARK   34  A    between atoms: _79  and  _80
REMARK   35  A    between atoms: _85  and  _87
REMARK   36  A    between atoms: _87  and  _88
REMARK   37  A    between atoms: _87  and  _90
REMARK   38  A    between atoms: _90  and  _91
REMARK   39  A    between atoms: _94  and  _96
REMARK   40  A    between atoms: _96  and  _97
REMARK   41  A    between atoms: _96  and  _99
REMARK   42  A    between atoms: _102  and  _104
REMARK   43  A    between atoms: _104  and  _105
REMARK   44  A    between atoms: _104  and  _107
REMARK   45  A    between atoms: _107  and  _108
REMARK   46  A    between atoms: _111  and  _113
REMARK   47  A    between atoms: _113  and  _114
REMARK   48  A    between atoms: _113  and  _116
REMARK   49  A    between atoms: _117  and  _118
REMARK   50  A    between atoms: _118  and  _119
REMARK   51  A    between atoms: _119  and  _120
REMARK   52  A    between atoms: _124  and  _126
REMARK   53  A    between atoms: _126  and  _127
REMARK   54  A    between atoms: _126  and  _129
REMARK   55  A    between atoms: _129  and  _130
REMARK   56  A    between atoms: _130  and  _131
REMARK   57  A    between atoms: _133  and  _135
REMARK   58  A    between atoms: _135  and  _136
REMARK   59  A    between atoms: _135  and  _138
REMARK   60  A    between atoms: _138  and  _139
REMARK   61  A    between atoms: _142  and  _144
REMARK   62  A    between atoms: _144  and  _145
REMARK   63  A    between atoms: _147  and  _149
REMARK   64  A    between atoms: _149  and  _150
REMARK   65  A    between atoms: _152  and  _154
REMARK   66  A    between atoms: _154  and  _155
REMARK   67  A    between atoms: _154  and  _157
REMARK   68  A    between atoms: _157  and  _158
REMARK   69  A    between atoms: _161  and  _163
REMARK   70  A    between atoms: _163  and  _164
REMARK   71  A    between atoms: _166  and  _168
REMARK   72  A    between atoms: _168  and  _169
REMARK   73  A    between atoms: _171  and  _173
REMARK   74  A    between atoms: _173  and  _174
REMARK   75  A    between atoms: _173  and  _176
REMARK   76  A    between atoms: _176  and  _177
REMARK   77  A    between atoms: _183  and  _185
REMARK   78  A    between atoms: _185  and  _186
REMARK   79  A    between atoms: _185  and  _188
REMARK   80  A    between atoms: _188  and  _189
REMARK   81  A    between atoms: _192  and  _194
REMARK   82  A    between atoms: _194  and  _195
REMARK   83  A    between atoms: _194  and  _197
REMARK   84  A    between atoms: _200  and  _202
REMARK   85  A    between atoms: _202  and  _203
REMARK   86  A    between atoms: _202  and  _205
REMARK   87  A    between atoms: _205  and  _206
REMARK   88  A    between atoms: _209  and  _211
REMARK   89  A    between atoms: _211  and  _212
REMARK   90  A    between atoms: _211  and  _214
REMARK   91  A    between atoms: _214  and  _215
REMARK   92  A    between atoms: _219  and  _220
REMARK   93  A    between atoms: _225  and  _227
REMARK   94  A    between atoms: _227  and  _228
REMARK   95  A    between atoms: _227  and  _230
REMARK   96  A    between atoms: _233  and  _235
REMARK   97  A    between atoms: _235  and  _236
REMARK   98  A    between atoms: _235  and  _238
REMARK   99  A    between atoms: _238  and  _239
REMARK  100  A    between atoms: _244  and  _246
REMARK  101  A    between atoms: _246  and  _247
REMARK  102  A    between atoms: _246  and  _249
REMARK  103  A    between atoms: _249  and  _250
REMARK  104  A    between atoms: _253  and  _255
REMARK  105  A    between atoms: _255  and  _256
REMARK  106  A    between atoms: _255  and  _258
REMARK  107  A    between atoms: _258  and  _259
REMARK  108  A    between atoms: _262  and  _264
REMARK  109  A    between atoms: _264  and  _265
REMARK  110  A    between atoms: _267  and  _269
REMARK  111  A    between atoms: _269  and  _270
REMARK  112  A    between atoms: _269  and  _272
REMARK  113  A    between atoms: _272  and  _273
REMARK  114  A    between atoms: _273  and  _274
REMARK  115  A    between atoms: _274  and  _275
REMARK  116  A    between atoms: _284  and  _286
REMARK  117  A    between atoms: _286  and  _287
REMARK  118  A    between atoms: _286  and  _289
REMARK  119  A    between atoms: _289  and  _290
REMARK  120  A    between atoms: _295  and  _297
REMARK  121  A    between atoms: _297  and  _298
REMARK  122  A    between atoms: _297  and  _300
REMARK  123  A    between atoms: _300  and  _301
REMARK  124  A    between atoms: _301  and  _302
REMARK  125  A    between atoms: _302  and  _303
REMARK  126  A    between atoms: _312  and  _314
REMARK  127  A    between atoms: _314  and  _315
REMARK  128  A    between atoms: _314  and  _317
REMARK  129  A    between atoms: _317  and  _318
REMARK  130  A    between atoms: _321  and  _323
REMARK  131  A    between atoms: _323  and  _324
REMARK  132  A    between atoms: _323  and  _326
REMARK  133  A    between atoms: _326  and  _327
REMARK  134  A    between atoms: _330  and  _332
REMARK  135  A    between atoms: _332  and  _333
REMARK  136  A    between atoms: _332  and  _335
REMARK  137  A    between atoms: _335  and  _336
REMARK  138  A    between atoms: _339  and  _341
REMARK  139  A    between atoms: _341  and  _342
REMARK  140  A    between atoms: _341  and  _344
REMARK  141  A    between atoms: _344  and  _345
REMARK  142  A    between atoms: _348  and  _350
REMARK  143  A    between atoms: _350  and  _351
REMARK  144  A    between atoms: _353  and  _355
REMARK  145  A    between atoms: _355  and  _356
REMARK  146  A    between atoms: _359  and  _361
REMARK  147  A    between atoms: _361  and  _362
REMARK  148  A    between atoms: _361  and  _364
REMARK  149  A    between atoms: _364  and  _365
REMARK  150  A    between atoms: _368  and  _370
REMARK  151  A    between atoms: _370  and  _371
REMARK  152  A    between atoms: _370  and  _373
REMARK  153  A    between atoms: _373  and  _374
REMARK  154  A    between atoms: _379  and  _381
REMARK  155  A    between atoms: _381  and  _382
REMARK  156  A    between atoms: _381  and  _384
REMARK  157  A    between atoms: _384  and  _385
REMARK  158  A    between atoms: _388  and  _390
REMARK  159  A    between atoms: _390  and  _391
REMARK  160  A    between atoms: _390  and  _393
REMARK  161  A    between atoms: _396  and  _398
REMARK  162  A    between atoms: _398  and  _399
REMARK  163  A    between atoms: _398  and  _401
REMARK  164  A    between atoms: _401  and  _402
REMARK  165  A    between atoms: _402  and  _403
REMARK  166  A    between atoms: _403  and  _404
REMARK  167  A    between atoms: _404  and  _405
REMARK  168  A    between atoms: _409  and  _411
REMARK  169  A    between atoms: _411  and  _412
REMARK  170  A    between atoms: _411  and  _414
REMARK  171  A    between atoms: _414  and  _415
REMARK  172  A    between atoms: _415  and  _416
REMARK  173  A    between atoms: _418  and  _420
REMARK  174  A    between atoms: _420  and  _421
REMARK  175  A    between atoms: _420  and  _423
REMARK  176  A    between atoms: _423  and  _424
REMARK  177  A    between atoms: _427  and  _429
REMARK  178  A    between atoms: _429  and  _430
REMARK  179  A    between atoms: _432  and  _434
REMARK  180  A    between atoms: _434  and  _435
REMARK  181  A    between atoms: _437  and  _439
REMARK  182  A    between atoms: _439  and  _440
REMARK  183  A    between atoms: _439  and  _442
REMARK  184  A    between atoms: _442  and  _443
REMARK  185  A    between atoms: _446  and  _448
REMARK  186  A    between atoms: _448  and  _449
REMARK  187  A    between atoms: _451  and  _453
REMARK  188  A    between atoms: _453  and  _454
REMARK  189  A    between atoms: _456  and  _458
REMARK  190  A    between atoms: _458  and  _459
REMARK  191  A    between atoms: _458  and  _461
REMARK  192  A    between atoms: _461  and  _462
REMARK  193  A    between atoms: _468  and  _470
REMARK  194  A    between atoms: _470  and  _471
REMARK  195  A    between atoms: _470  and  _473
REMARK  196  A    between atoms: _473  and  _474
REMARK  197  A    between atoms: _477  and  _479
REMARK  198  A    between atoms: _479  and  _480
REMARK  199  A    between atoms: _479  and  _482
REMARK  200  A    between atoms: _485  and  _487
REMARK  201  A    between atoms: _487  and  _488
REMARK  202  A    between atoms: _487  and  _490
REMARK  203  A    between atoms: _490  and  _491
REMARK  204  A    between atoms: _494  and  _496
REMARK  205  A    between atoms: _496  and  _497
REMARK  206  A    between atoms: _496  and  _499
REMARK  207  A    between atoms: _499  and  _500
REMARK  208  A    between atoms: _504  and  _505
REMARK  209  A    between atoms: _510  and  _512
REMARK  210  A    between atoms: _512  and  _513
REMARK  211  A    between atoms: _512  and  _515
REMARK  212  A    between atoms: _518  and  _520
REMARK  213  A    between atoms: _520  and  _521
REMARK  214  A    between atoms: _520  and  _523
REMARK  215  A    between atoms: _523  and  _524
REMARK  216  A    between atoms: _529  and  _531
REMARK  217  A    between atoms: _531  and  _532
REMARK  218  A    between atoms: _531  and  _534
REMARK  219  A    between atoms: _534  and  _535
REMARK  220  A    between atoms: _538  and  _540
REMARK  221  A    between atoms: _540  and  _541
REMARK  222  A    between atoms: _540  and  _543
REMARK  223  A    between atoms: _543  and  _544
REMARK  224  A    between atoms: _547  and  _549
REMARK  225  A    between atoms: _549  and  _550
REMARK  226  A    between atoms: _552  and  _554
REMARK  227  A    between atoms: _554  and  _555
REMARK  228  A    between atoms: _554  and  _557
REMARK  229  A    between atoms: _557  and  _558
REMARK  230  A    between atoms: _558  and  _559
REMARK  231  A    between atoms: _559  and  _560
REMARK  232  A    between atoms: _569  and  _571
REMARK  233  A    between atoms: _571  and  _572
REMARK  234  A    between atoms: _571  and  _574
REMARK  235  A    between atoms: _574  and  _575
REMARK                            x       y       z     vdW  Elec       q    Type
REMARK                         _______ _______ _______ _____ _____    ______ ____
ROOT
ATOM      1  O   HOH     1      18.351  30.716  21.694  0.00  0.00    +0.000 OA
ENDROOT
TORSDOF 0
REMARK  Name = ../refined-set-2016/2f80/2f80_pocket.pdb
REMARK  235 active torsions:
REMARK  status: ('A' for Active; 'I' for Inactive)
REMARK    1  A    between atoms: _1  and  _3
REMARK    2  A    between atoms: _3  and  _4
REMARK    3  A    between atoms: _3  and  _6
REMARK    4  A    between atoms: _6  and  _7
REMARK    5  A    between atoms: _7  and  _8
REMARK    6  A    between atoms: _8  and  _9
REMARK    7  A    between atoms: _18  and  _20
REMARK    8  A    between atoms: _20  and  _21
REMARK    9  A    between atoms: _20  and  _23
REMARK   10  A    between atoms: _23  and  _24
REMARK   11  A    between atoms: _27  and  _29
REMARK   12  A    between atoms: _29  and  _30
REMARK   13  A    between atoms: _29  and  _32
REMARK   14  A    between atoms: _32  and  _33
REMARK   15  A    between atoms: _36  and  _38
REMARK   16  A    between atoms: _38  and  _39
REMARK   17  A    between atoms: _38  and  _41
REMARK   18  A    between atoms: _41  and  _42
REMARK   19  A    between atoms: _45  and  _47
REMARK   20  A    between atoms: _47  and  _48
REMARK   21  A    between atoms: _47  and  _50
REMARK   22  A    between atoms: _50  and  _51
REMARK   23  A    between atoms: _54  and  _56
REMARK   24  A    between atoms: _56  and  _57
REMARK   25  A    between atoms: _59  and  _61
REMARK   26  A    between atoms: _61  and  _62
REMARK   27  A    between atoms: _65  and  _67
REMARK   28  A    between atoms: _67  and  _68
REMARK   29  A    between atoms: _67  and  _70
REMARK   30  A    between atoms: _70  and  _71
REMARK   31  A    between atoms: _74  and  _76
REMARK   32  A    between atoms: _76  and  _77
REMARK   33  A    between atoms: _76  and  _79
REMARK   34  A    between atoms: _79  and  _80
REMARK   35  A    between atoms: _85  and  _87
REMARK   36  A    between atoms: _87  and  _88
REMARK   37  A    between atoms: _87  and  _90
REMARK   38  A    between atoms: _90  and  _91
REMARK   39  A    between atoms: _94  and  _96
REMARK   40  A    between atoms: _96  and  _97
REMARK   41  A    between atoms: _96  and  _99
REMARK   42  A    between atoms: _102  and  _104
REMARK   43  A    between atoms: _104  and  _105
REMARK   44  A    between atoms: _104  and  _107
REMARK   45  A    between atoms: _107  and  _108
REMARK   46  A    between atoms: _111  and  _113
REMARK   47  A    between atoms: _113  and  _114
REMARK   48  A    between atoms: _113  and  _116
REMARK   49  A    between atoms: _117  and  _118
REMARK   50  A    between atoms: _118  and  _119
REMARK   51  A    between atoms: _119  and  _120
REMARK   52  A    between atoms: _124  and  _126
REMARK   53  A    between atoms: _126  and  _127
REMARK   54  A    between atoms: _126  and  _129
REMARK   55  A    between atoms: _129  and  _130
REMARK   56  A    between atoms: _130  and  _131
REMARK   57  A    between atoms: _133  and  _135
REMARK   58  A    between atoms: _135  and  _136
REMARK   59  A    between atoms: _135  and  _138
REMARK   60  A    between atoms: _138  and  _139
REMARK   61  A    between atoms: _142  and  _144
REMARK   62  A    between atoms: _144  and  _145
REMARK   63  A    between atoms: _147  and  _149
REMARK   64  A    between atoms: _149  and  _150
REMARK   65  A    between atoms: _152  and  _154
REMARK   66  A    between atoms: _154  and  _155
REMARK   67  A    between atoms: _154  and  _157
REMARK   68  A    between atoms: _157  and  _158
REMARK   69  A    between atoms: _161  and  _163
REMARK   70  A    between atoms: _163  and  _164
REMARK   71  A    between atoms: _166  and  _168
REMARK   72  A    between atoms: _168  and  _169
REMARK   73  A    between atoms: _171  and  _173
REMARK   74  A    between atoms: _173  and  _174
REMARK   75  A    between atoms: _173  and  _176
REMARK   76  A    between atoms: _176  and  _177
REMARK   77  A    between atoms: _183  and  _185
REMARK   78  A    between atoms: _185  and  _186
REMARK   79  A    between atoms: _185  and  _188
REMARK   80  A    between atoms: _188  and  _189
REMARK   81  A    between atoms: _192  and  _194
REMARK   82  A    between atoms: _194  and  _195
REMARK   83  A    between atoms: _194  and  _197
REMARK   84  A    between atoms: _200  and  _202
REMARK   85  A    between atoms: _202  and  _203
REMARK   86  A    between atoms: _202  and  _205
REMARK   87  A    between atoms: _205  and  _206
REMARK   88  A    between atoms: _209  and  _211
REMARK   89  A    between atoms: _211  and  _212
REMARK   90  A    between atoms: _211  and  _214
REMARK   91  A    between atoms: _214  and  _215
REMARK   92  A    between atoms: _219  and  _220
REMARK   93  A    between atoms: _225  and  _227
REMARK   94  A    between atoms: _227  and  _228
REMARK   95  A    between atoms: _227  and  _230
REMARK   96  A    between atoms: _233  and  _235
REMARK   97  A    between atoms: _235  and  _236
REMARK   98  A    between atoms: _235  and  _238
REMARK   99  A    between atoms: _238  and  _239
REMARK  100  A    between atoms: _244  and  _246
REMARK  101  A    between atoms: _246  and  _247
REMARK  102  A    between atoms: _246  and  _249
REMARK  103  A    between atoms: _249  and  _250
REMARK  104  A    between atoms: _253  and  _255
REMARK  105  A    between atoms: _255  and  _256
REMARK  106  A    between atoms: _255  and  _258
REMARK  107  A    between atoms: _258  and  _259
REMARK  108  A    between atoms: _262  and  _264
REMARK  109  A    between atoms: _264  and  _265
REMARK  110  A    between atoms: _267  and  _269
REMARK  111  A    between atoms: _269  and  _270
REMARK  112  A    between atoms: _269  and  _272
REMARK  113  A    between atoms: _272  and  _273
REMARK  114  A    between atoms: _273  and  _274
REMARK  115  A    between atoms: _274  and  _275
REMARK  116  A    between atoms: _284  and  _286
REMARK  117  A    between atoms: _286  and  _287
REMARK  118  A    between atoms: _286  and  _289
REMARK  119  A    between atoms: _289  and  _290
REMARK  120  A    between atoms: _295  and  _297
REMARK  121  A    between atoms: _297  and  _298
REMARK  122  A    between atoms: _297  and  _300
REMARK  123  A    between atoms: _300  and  _301
REMARK  124  A    between atoms: _301  and  _302
REMARK  125  A    between atoms: _302  and  _303
REMARK  126  A    between atoms: _312  and  _314
REMARK  127  A    between atoms: _314  and  _315
REMARK  128  A    between atoms: _314  and  _317
REMARK  129  A    between atoms: _317  and  _318
REMARK  130  A    between atoms: _321  and  _323
REMARK  131  A    between atoms: _323  and  _324
REMARK  132  A    between atoms: _323  and  _326
REMARK  133  A    between atoms: _326  and  _327
REMARK  134  A    between atoms: _330  and  _332
REMARK  135  A    between atoms: _332  and  _333
REMARK  136  A    between atoms: _332  and  _335
REMARK  137  A    between atoms: _335  and  _336
REMARK  138  A    between atoms: _339  and  _341
REMARK  139  A    between atoms: _341  and  _342
REMARK  140  A    between atoms: _341  and  _344
REMARK  141  A    between atoms: _344  and  _345
REMARK  142  A    between atoms: _348  and  _350
REMARK  143  A    between atoms: _350  and  _351
REMARK  144  A    between atoms: _353  and  _355
REMARK  145  A    between atoms: _355  and  _356
REMARK  146  A    between atoms: _359  and  _361
REMARK  147  A    between atoms: _361  and  _362
REMARK  148  A    between atoms: _361  and  _364
REMARK  149  A    between atoms: _364  and  _365
REMARK  150  A    between atoms: _368  and  _370
REMARK  151  A    between atoms: _370  and  _371
REMARK  152  A    between atoms: _370  and  _373
REMARK  153  A    between atoms: _373  and  _374
REMARK  154  A    between atoms: _379  and  _381
REMARK  155  A    between atoms: _381  and  _382
REMARK  156  A    between atoms: _381  and  _384
REMARK  157  A    between atoms: _384  and  _385
REMARK  158  A    between atoms: _388  and  _390
REMARK  159  A    between atoms: _390  and  _391
REMARK  160  A    between atoms: _390  and  _393
REMARK  161  A    between atoms: _396  and  _398
REMARK  162  A    between atoms: _398  and  _399
REMARK  163  A    between atoms: _398  and  _401
REMARK  164  A    between atoms: _401  and  _402
REMARK  165  A    between atoms: _402  and  _403
REMARK  166  A    between atoms: _403  and  _404
REMARK  167  A    between atoms: _404  and  _405
REMARK  168  A    between atoms: _409  and  _411
REMARK  169  A    between atoms: _411  and  _412
REMARK  170  A    between atoms: _411  and  _414
REMARK  171  A    between atoms: _414  and  _415
REMARK  172  A    between atoms: _415  and  _416
REMARK  173  A    between atoms: _418  and  _420
REMARK  174  A    between atoms: _420  and  _421
REMARK  175  A    between atoms: _420  and  _423
REMARK  176  A    between atoms: _423  and  _424
REMARK  177  A    between atoms: _427  and  _429
REMARK  178  A    between atoms: _429  and  _430
REMARK  179  A    between atoms: _432  and  _434
REMARK  180  A    between atoms: _434  and  _435
REMARK  181  A    between atoms: _437  and  _439
REMARK  182  A    between atoms: _439  and  _440
REMARK  183  A    between atoms: _439  and  _442
REMARK  184  A    between atoms: _442  and  _443
REMARK  185  A    between atoms: _446  and  _448
REMARK  186  A    between atoms: _448  and  _449
REMARK  187  A    between atoms: _451  and  _453
REMARK  188  A    between atoms: _453  and  _454
REMARK  189  A    between atoms: _456  and  _458
REMARK  190  A    between atoms: _458  and  _459
REMARK  191  A    between atoms: _458  and  _461
REMARK  192  A    between atoms: _461  and  _462
REMARK  193  A    between atoms: _468  and  _470
REMARK  194  A    between atoms: _470  and  _471
REMARK  195  A    between atoms: _470  and  _473
REMARK  196  A    between atoms: _473  and  _474
REMARK  197  A    between atoms: _477  and  _479
REMARK  198  A    between atoms: _479  and  _480
REMARK  199  A    between atoms: _479  and  _482
REMARK  200  A    between atoms: _485  and  _487
REMARK  201  A    between atoms: _487  and  _488
REMARK  202  A    between atoms: _487  and  _490
REMARK  203  A    between atoms: _490  and  _491
REMARK  204  A    between atoms: _494  and  _496
REMARK  205  A    between atoms: _496  and  _497
REMARK  206  A    between atoms: _496  and  _499
REMARK  207  A    between atoms: _499  and  _500
REMARK  208  A    between atoms: _504  and  _505
REMARK  209  A    between atoms: _510  and  _512
REMARK  210  A    between atoms: _512  and  _513
REMARK  211  A    between atoms: _512  and  _515
REMARK  212  A    between atoms: _518  and  _520
REMARK  213  A    between atoms: _520  and  _521
REMARK  214  A    between atoms: _520  and  _523
REMARK  215  A    between atoms: _523  and  _524
REMARK  216  A    between atoms: _529  and  _531
REMARK  217  A    between atoms: _531  and  _532
REMARK  218  A    between atoms: _531  and  _534
REMARK  219  A    between atoms: _534  and  _535
REMARK  220  A    between atoms: _538  and  _540
REMARK  221  A    between atoms: _540  and  _541
REMARK  222  A    between atoms: _540  and  _543
REMARK  223  A    between atoms: _543  and  _544
REMARK  224  A    between atoms: _547  and  _549
REMARK  225  A    between atoms: _549  and  _550
REMARK  226  A    between atoms: _552  and  _554
REMARK  227  A    between atoms: _554  and  _555
REMARK  228  A    between atoms: _554  and  _557
REMARK  229  A    between atoms: _557  and  _558
REMARK  230  A    between atoms: _558  and  _559
REMARK  231  A    between atoms: _559  and  _560
REMARK  232  A    between atoms: _569  and  _571
REMARK  233  A    between atoms: _571  and  _572
REMARK  234  A    between atoms: _571  and  _574
REMARK  235  A    between atoms: _574  and  _575
REMARK                            x       y       z     vdW  Elec       q    Type
REMARK                         _______ _______ _______ _____ _____    ______ ____
ROOT
ATOM      1  O   HOH     1      20.138  28.721  21.209  0.00  0.00    +0.000 OA
ENDROOT
TORSDOF 0
REMARK  Name = ../refined-set-2016/2f80/2f80_pocket.pdb
REMARK  235 active torsions:
REMARK  status: ('A' for Active; 'I' for Inactive)
REMARK    1  A    between atoms: _1  and  _3
REMARK    2  A    between atoms: _3  and  _4
REMARK    3  A    between atoms: _3  and  _6
REMARK    4  A    between atoms: _6  and  _7
REMARK    5  A    between atoms: _7  and  _8
REMARK    6  A    between atoms: _8  and  _9
REMARK    7  A    between atoms: _18  and  _20
REMARK    8  A    between atoms: _20  and  _21
REMARK    9  A    between atoms: _20  and  _23
REMARK   10  A    between atoms: _23  and  _24
REMARK   11  A    between atoms: _27  and  _29
REMARK   12  A    between atoms: _29  and  _30
REMARK   13  A    between atoms: _29  and  _32
REMARK   14  A    between atoms: _32  and  _33
REMARK   15  A    between atoms: _36  and  _38
REMARK   16  A    between atoms: _38  and  _39
REMARK   17  A    between atoms: _38  and  _41
REMARK   18  A    between atoms: _41  and  _42
REMARK   19  A    between atoms: _45  and  _47
REMARK   20  A    between atoms: _47  and  _48
REMARK   21  A    between atoms: _47  and  _50
REMARK   22  A    between atoms: _50  and  _51
REMARK   23  A    between atoms: _54  and  _56
REMARK   24  A    between atoms: _56  and  _57
REMARK   25  A    between atoms: _59  and  _61
REMARK   26  A    between atoms: _61  and  _62
REMARK   27  A    between atoms: _65  and  _67
REMARK   28  A    between atoms: _67  and  _68
REMARK   29  A    between atoms: _67  and  _70
REMARK   30  A    between atoms: _70  and  _71
REMARK   31  A    between atoms: _74  and  _76
REMARK   32  A    between atoms: _76  and  _77
REMARK   33  A    between atoms: _76  and  _79
REMARK   34  A    between atoms: _79  and  _80
REMARK   35  A    between atoms: _85  and  _87
REMARK   36  A    between atoms: _87  and  _88
REMARK   37  A    between atoms: _87  and  _90
REMARK   38  A    between atoms: _90  and  _91
REMARK   39  A    between atoms: _94  and  _96
REMARK   40  A    between atoms: _96  and  _97
REMARK   41  A    between atoms: _96  and  _99
REMARK   42  A    between atoms: _102  and  _104
REMARK   43  A    between atoms: _104  and  _105
REMARK   44  A    between atoms: _104  and  _107
REMARK   45  A    between atoms: _107  and  _108
REMARK   46  A    between atoms: _111  and  _113
REMARK   47  A    between atoms: _113  and  _114
REMARK   48  A    between atoms: _113  and  _116
REMARK   49  A    between atoms: _117  and  _118
REMARK   50  A    between atoms: _118  and  _119
REMARK   51  A    between atoms: _119  and  _120
REMARK   52  A    between atoms: _124  and  _126
REMARK   53  A    between atoms: _126  and  _127
REMARK   54  A    between atoms: _126  and  _129
REMARK   55  A    between atoms: _129  and  _130
REMARK   56  A    between atoms: _130  and  _131
REMARK   57  A    between atoms: _133  and  _135
REMARK   58  A    between atoms: _135  and  _136
REMARK   59  A    between atoms: _135  and  _138
REMARK   60  A    between atoms: _138  and  _139
REMARK   61  A    between atoms: _142  and  _144
REMARK   62  A    between atoms: _144  and  _145
REMARK   63  A    between atoms: _147  and  _149
REMARK   64  A    between atoms: _149  and  _150
REMARK   65  A    between atoms: _152  and  _154
REMARK   66  A    between atoms: _154  and  _155
REMARK   67  A    between atoms: _154  and  _157
REMARK   68  A    between atoms: _157  and  _158
REMARK   69  A    between atoms: _161  and  _163
REMARK   70  A    between atoms: _163  and  _164
REMARK   71  A    between atoms: _166  and  _168
REMARK   72  A    between atoms: _168  and  _169
REMARK   73  A    between atoms: _171  and  _173
REMARK   74  A    between atoms: _173  and  _174
REMARK   75  A    between atoms: _173  and  _176
REMARK   76  A    between atoms: _176  and  _177
REMARK   77  A    between atoms: _183  and  _185
REMARK   78  A    between atoms: _185  and  _186
REMARK   79  A    between atoms: _185  and  _188
REMARK   80  A    between atoms: _188  and  _189
REMARK   81  A    between atoms: _192  and  _194
REMARK   82  A    between atoms: _194  and  _195
REMARK   83  A    between atoms: _194  and  _197
REMARK   84  A    between atoms: _200  and  _202
REMARK   85  A    between atoms: _202  and  _203
REMARK   86  A    between atoms: _202  and  _205
REMARK   87  A    between atoms: _205  and  _206
REMARK   88  A    between atoms: _209  and  _211
REMARK   89  A    between atoms: _211  and  _212
REMARK   90  A    between atoms: _211  and  _214
REMARK   91  A    between atoms: _214  and  _215
REMARK   92  A    between atoms: _219  and  _220
REMARK   93  A    between atoms: _225  and  _227
REMARK   94  A    between atoms: _227  and  _228
REMARK   95  A    between atoms: _227  and  _230
REMARK   96  A    between atoms: _233  and  _235
REMARK   97  A    between atoms: _235  and  _236
REMARK   98  A    between atoms: _235  and  _238
REMARK   99  A    between atoms: _238  and  _239
REMARK  100  A    between atoms: _244  and  _246
REMARK  101  A    between atoms: _246  and  _247
REMARK  102  A    between atoms: _246  and  _249
REMARK  103  A    between atoms: _249  and  _250
REMARK  104  A    between atoms: _253  and  _255
REMARK  105  A    between atoms: _255  and  _256
REMARK  106  A    between atoms: _255  and  _258
REMARK  107  A    between atoms: _258  and  _259
REMARK  108  A    between atoms: _262  and  _264
REMARK  109  A    between atoms: _264  and  _265
REMARK  110  A    between atoms: _267  and  _269
REMARK  111  A    between atoms: _269  and  _270
REMARK  112  A    between atoms: _269  and  _272
REMARK  113  A    between atoms: _272  and  _273
REMARK  114  A    between atoms: _273  and  _274
REMARK  115  A    between atoms: _274  and  _275
REMARK  116  A    between atoms: _284  and  _286
REMARK  117  A    between atoms: _286  and  _287
REMARK  118  A    between atoms: _286  and  _289
REMARK  119  A    between atoms: _289  and  _290
REMARK  120  A    between atoms: _295  and  _297
REMARK  121  A    between atoms: _297  and  _298
REMARK  122  A    between atoms: _297  and  _300
REMARK  123  A    between atoms: _300  and  _301
REMARK  124  A    between atoms: _301  and  _302
REMARK  125  A    between atoms: _302  and  _303
REMARK  126  A    between atoms: _312  and  _314
REMARK  127  A    between atoms: _314  and  _315
REMARK  128  A    between atoms: _314  and  _317
REMARK  129  A    between atoms: _317  and  _318
REMARK  130  A    between atoms: _321  and  _323
REMARK  131  A    between atoms: _323  and  _324
REMARK  132  A    between atoms: _323  and  _326
REMARK  133  A    between atoms: _326  and  _327
REMARK  134  A    between atoms: _330  and  _332
REMARK  135  A    between atoms: _332  and  _333
REMARK  136  A    between atoms: _332  and  _335
REMARK  137  A    between atoms: _335  and  _336
REMARK  138  A    between atoms: _339  and  _341
REMARK  139  A    between atoms: _341  and  _342
REMARK  140  A    between atoms: _341  and  _344
REMARK  141  A    between atoms: _344  and  _345
REMARK  142  A    between atoms: _348  and  _350
REMARK  143  A    between atoms: _350  and  _351
REMARK  144  A    between atoms: _353  and  _355
REMARK  145  A    between atoms: _355  and  _356
REMARK  146  A    between atoms: _359  and  _361
REMARK  147  A    between atoms: _361  and  _362
REMARK  148  A    between atoms: _361  and  _364
REMARK  149  A    between atoms: _364  and  _365
REMARK  150  A    between atoms: _368  and  _370
REMARK  151  A    between atoms: _370  and  _371
REMARK  152  A    between atoms: _370  and  _373
REMARK  153  A    between atoms: _373  and  _374
REMARK  154  A    between atoms: _379  and  _381
REMARK  155  A    between atoms: _381  and  _382
REMARK  156  A    between atoms: _381  and  _384
REMARK  157  A    between atoms: _384  and  _385
REMARK  158  A    between atoms: _388  and  _390
REMARK  159  A    between atoms: _390  and  _391
REMARK  160  A    between atoms: _390  and  _393
REMARK  161  A    between atoms: _396  and  _398
REMARK  162  A    between atoms: _398  and  _399
REMARK  163  A    between atoms: _398  and  _401
REMARK  164  A    between atoms: _401  and  _402
REMARK  165  A    between atoms: _402  and  _403
REMARK  166  A    between atoms: _403  and  _404
REMARK  167  A    between atoms: _404  and  _405
REMARK  168  A    between atoms: _409  and  _411
REMARK  169  A    between atoms: _411  and  _412
REMARK  170  A    between atoms: _411  and  _414
REMARK  171  A    between atoms: _414  and  _415
REMARK  172  A    between atoms: _415  and  _416
REMARK  173  A    between atoms: _418  and  _420
REMARK  174  A    between atoms: _420  and  _421
REMARK  175  A    between atoms: _420  and  _423
REMARK  176  A    between atoms: _423  and  _424
REMARK  177  A    between atoms: _427  and  _429
REMARK  178  A    between atoms: _429  and  _430
REMARK  179  A    between atoms: _432  and  _434
REMARK  180  A    between atoms: _434  and  _435
REMARK  181  A    between atoms: _437  and  _439
REMARK  182  A    between atoms: _439  and  _440
REMARK  183  A    between atoms: _439  and  _442
REMARK  184  A    between atoms: _442  and  _443
REMARK  185  A    between atoms: _446  and  _448
REMARK  186  A    between atoms: _448  and  _449
REMARK  187  A    between atoms: _451  and  _453
REMARK  188  A    between atoms: _453  and  _454
REMARK  189  A    between atoms: _456  and  _458
REMARK  190  A    between atoms: _458  and  _459
REMARK  191  A    between atoms: _458  and  _461
REMARK  192  A    between atoms: _461  and  _462
REMARK  193  A    between atoms: _468  and  _470
REMARK  194  A    between atoms: _470  and  _471
REMARK  195  A    between atoms: _470  and  _473
REMARK  196  A    between atoms: _473  and  _474
REMARK  197  A    between atoms: _477  and  _479
REMARK  198  A    between atoms: _479  and  _480
REMARK  199  A    between atoms: _479  and  _482
REMARK  200  A    between atoms: _485  and  _487
REMARK  201  A    between atoms: _487  and  _488
REMARK  202  A    between atoms: _487  and  _490
REMARK  203  A    between atoms: _490  and  _491
REMARK  204  A    between atoms: _494  and  _496
REMARK  205  A    between atoms: _496  and  _497
REMARK  206  A    between atoms: _496  and  _499
REMARK  207  A    between atoms: _499  and  _500
REMARK  208  A    between atoms: _504  and  _505
REMARK  209  A    between atoms: _510  and  _512
REMARK  210  A    between atoms: _512  and  _513
REMARK  211  A    between atoms: _512  and  _515
REMARK  212  A    between atoms: _518  and  _520
REMARK  213  A    between atoms: _520  and  _521
REMARK  214  A    between atoms: _520  and  _523
REMARK  215  A    between atoms: _523  and  _524
REMARK  216  A    between atoms: _529  and  _531
REMARK  217  A    between atoms: _531  and  _532
REMARK  218  A    between atoms: _531  and  _534
REMARK  219  A    between atoms: _534  and  _535
REMARK  220  A    between atoms: _538  and  _540
REMARK  221  A    between atoms: _540  and  _541
REMARK  222  A    between atoms: _540  and  _543
REMARK  223  A    between atoms: _543  and  _544
REMARK  224  A    between atoms: _547  and  _549
REMARK  225  A    between atoms: _549  and  _550
REMARK  226  A    between atoms: _552  and  _554
REMARK  227  A    between atoms: _554  and  _555
REMARK  228  A    between atoms: _554  and  _557
REMARK  229  A    between atoms: _557  and  _558
REMARK  230  A    between atoms: _558  and  _559
REMARK  231  A    between atoms: _559  and  _560
REMARK  232  A    between atoms: _569  and  _571
REMARK  233  A    between atoms: _571  and  _572
REMARK  234  A    between atoms: _571  and  _574
REMARK  235  A    between atoms: _574  and  _575
REMARK                            x       y       z     vdW  Elec       q    Type
REMARK                         _______ _______ _______ _____ _____    ______ ____
ROOT
ATOM      1  O   HOH     1      21.221  35.664  17.647  0.00  0.00    +0.000 OA
ENDROOT
TORSDOF 0
REMARK  Name = ../refined-set-2016/2f80/2f80_pocket.pdb
REMARK  235 active torsions:
REMARK  status: ('A' for Active; 'I' for Inactive)
REMARK    1  A    between atoms: _1  and  _3
REMARK    2  A    between atoms: _3  and  _4
REMARK    3  A    between atoms: _3  and  _6
REMARK    4  A    between atoms: _6  and  _7
REMARK    5  A    between atoms: _7  and  _8
REMARK    6  A    between atoms: _8  and  _9
REMARK    7  A    between atoms: _18  and  _20
REMARK    8  A    between atoms: _20  and  _21
REMARK    9  A    between atoms: _20  and  _23
REMARK   10  A    between atoms: _23  and  _24
REMARK   11  A    between atoms: _27  and  _29
REMARK   12  A    between atoms: _29  and  _30
REMARK   13  A    between atoms: _29  and  _32
REMARK   14  A    between atoms: _32  and  _33
REMARK   15  A    between atoms: _36  and  _38
REMARK   16  A    between atoms: _38  and  _39
REMARK   17  A    between atoms: _38  and  _41
REMARK   18  A    between atoms: _41  and  _42
REMARK   19  A    between atoms: _45  and  _47
REMARK   20  A    between atoms: _47  and  _48
REMARK   21  A    between atoms: _47  and  _50
REMARK   22  A    between atoms: _50  and  _51
REMARK   23  A    between atoms: _54  and  _56
REMARK   24  A    between atoms: _56  and  _57
REMARK   25  A    between atoms: _59  and  _61
REMARK   26  A    between atoms: _61  and  _62
REMARK   27  A    between atoms: _65  and  _67
REMARK   28  A    between atoms: _67  and  _68
REMARK   29  A    between atoms: _67  and  _70
REMARK   30  A    between atoms: _70  and  _71
REMARK   31  A    between atoms: _74  and  _76
REMARK   32  A    between atoms: _76  and  _77
REMARK   33  A    between atoms: _76  and  _79
REMARK   34  A    between atoms: _79  and  _80
REMARK   35  A    between atoms: _85  and  _87
REMARK   36  A    between atoms: _87  and  _88
REMARK   37  A    between atoms: _87  and  _90
REMARK   38  A    between atoms: _90  and  _91
REMARK   39  A    between atoms: _94  and  _96
REMARK   40  A    between atoms: _96  and  _97
REMARK   41  A    between atoms: _96  and  _99
REMARK   42  A    between atoms: _102  and  _104
REMARK   43  A    between atoms: _104  and  _105
REMARK   44  A    between atoms: _104  and  _107
REMARK   45  A    between atoms: _107  and  _108
REMARK   46  A    between atoms: _111  and  _113
REMARK   47  A    between atoms: _113  and  _114
REMARK   48  A    between atoms: _113  and  _116
REMARK   49  A    between atoms: _117  and  _118
REMARK   50  A    between atoms: _118  and  _119
REMARK   51  A    between atoms: _119  and  _120
REMARK   52  A    between atoms: _124  and  _126
REMARK   53  A    between atoms: _126  and  _127
REMARK   54  A    between atoms: _126  and  _129
REMARK   55  A    between atoms: _129  and  _130
REMARK   56  A    between atoms: _130  and  _131
REMARK   57  A    between atoms: _133  and  _135
REMARK   58  A    between atoms: _135  and  _136
REMARK   59  A    between atoms: _135  and  _138
REMARK   60  A    between atoms: _138  and  _139
REMARK   61  A    between atoms: _142  and  _144
REMARK   62  A    between atoms: _144  and  _145
REMARK   63  A    between atoms: _147  and  _149
REMARK   64  A    between atoms: _149  and  _150
REMARK   65  A    between atoms: _152  and  _154
REMARK   66  A    between atoms: _154  and  _155
REMARK   67  A    between atoms: _154  and  _157
REMARK   68  A    between atoms: _157  and  _158
REMARK   69  A    between atoms: _161  and  _163
REMARK   70  A    between atoms: _163  and  _164
REMARK   71  A    between atoms: _166  and  _168
REMARK   72  A    between atoms: _168  and  _169
REMARK   73  A    between atoms: _171  and  _173
REMARK   74  A    between atoms: _173  and  _174
REMARK   75  A    between atoms: _173  and  _176
REMARK   76  A    between atoms: _176  and  _177
REMARK   77  A    between atoms: _183  and  _185
REMARK   78  A    between atoms: _185  and  _186
REMARK   79  A    between atoms: _185  and  _188
REMARK   80  A    between atoms: _188  and  _189
REMARK   81  A    between atoms: _192  and  _194
REMARK   82  A    between atoms: _194  and  _195
REMARK   83  A    between atoms: _194  and  _197
REMARK   84  A    between atoms: _200  and  _202
REMARK   85  A    between atoms: _202  and  _203
REMARK   86  A    between atoms: _202  and  _205
REMARK   87  A    between atoms: _205  and  _206
REMARK   88  A    between atoms: _209  and  _211
REMARK   89  A    between atoms: _211  and  _212
REMARK   90  A    between atoms: _211  and  _214
REMARK   91  A    between atoms: _214  and  _215
REMARK   92  A    between atoms: _219  and  _220
REMARK   93  A    between atoms: _225  and  _227
REMARK   94  A    between atoms: _227  and  _228
REMARK   95  A    between atoms: _227  and  _230
REMARK   96  A    between atoms: _233  and  _235
REMARK   97  A    between atoms: _235  and  _236
REMARK   98  A    between atoms: _235  and  _238
REMARK   99  A    between atoms: _238  and  _239
REMARK  100  A    between atoms: _244  and  _246
REMARK  101  A    between atoms: _246  and  _247
REMARK  102  A    between atoms: _246  and  _249
REMARK  103  A    between atoms: _249  and  _250
REMARK  104  A    between atoms: _253  and  _255
REMARK  105  A    between atoms: _255  and  _256
REMARK  106  A    between atoms: _255  and  _258
REMARK  107  A    between atoms: _258  and  _259
REMARK  108  A    between atoms: _262  and  _264
REMARK  109  A    between atoms: _264  and  _265
REMARK  110  A    between atoms: _267  and  _269
REMARK  111  A    between atoms: _269  and  _270
REMARK  112  A    between atoms: _269  and  _272
REMARK  113  A    between atoms: _272  and  _273
REMARK  114  A    between atoms: _273  and  _274
REMARK  115  A    between atoms: _274  and  _275
REMARK  116  A    between atoms: _284  and  _286
REMARK  117  A    between atoms: _286  and  _287
REMARK  118  A    between atoms: _286  and  _289
REMARK  119  A    between atoms: _289  and  _290
REMARK  120  A    between atoms: _295  and  _297
REMARK  121  A    between atoms: _297  and  _298
REMARK  122  A    between atoms: _297  and  _300
REMARK  123  A    between atoms: _300  and  _301
REMARK  124  A    between atoms: _301  and  _302
REMARK  125  A    between atoms: _302  and  _303
REMARK  126  A    between atoms: _312  and  _314
REMARK  127  A    between atoms: _314  and  _315
REMARK  128  A    between atoms: _314  and  _317
REMARK  129  A    between atoms: _317  and  _318
REMARK  130  A    between atoms: _321  and  _323
REMARK  131  A    between atoms: _323  and  _324
REMARK  132  A    between atoms: _323  and  _326
REMARK  133  A    between atoms: _326  and  _327
REMARK  134  A    between atoms: _330  and  _332
REMARK  135  A    between atoms: _332  and  _333
REMARK  136  A    between atoms: _332  and  _335
REMARK  137  A    between atoms: _335  and  _336
REMARK  138  A    between atoms: _339  and  _341
REMARK  139  A    between atoms: _341  and  _342
REMARK  140  A    between atoms: _341  and  _344
REMARK  141  A    between atoms: _344  and  _345
REMARK  142  A    between atoms: _348  and  _350
REMARK  143  A    between atoms: _350  and  _351
REMARK  144  A    between atoms: _353  and  _355
REMARK  145  A    between atoms: _355  and  _356
REMARK  146  A    between atoms: _359  and  _361
REMARK  147  A    between atoms: _361  and  _362
REMARK  148  A    between atoms: _361  and  _364
REMARK  149  A    between atoms: _364  and  _365
REMARK  150  A    between atoms: _368  and  _370
REMARK  151  A    between atoms: _370  and  _371
REMARK  152  A    between atoms: _370  and  _373
REMARK  153  A    between atoms: _373  and  _374
REMARK  154  A    between atoms: _379  and  _381
REMARK  155  A    between atoms: _381  and  _382
REMARK  156  A    between atoms: _381  and  _384
REMARK  157  A    between atoms: _384  and  _385
REMARK  158  A    between atoms: _388  and  _390
REMARK  159  A    between atoms: _390  and  _391
REMARK  160  A    between atoms: _390  and  _393
REMARK  161  A    between atoms: _396  and  _398
REMARK  162  A    between atoms: _398  and  _399
REMARK  163  A    between atoms: _398  and  _401
REMARK  164  A    between atoms: _401  and  _402
REMARK  165  A    between atoms: _402  and  _403
REMARK  166  A    between atoms: _403  and  _404
REMARK  167  A    between atoms: _404  and  _405
REMARK  168  A    between atoms: _409  and  _411
REMARK  169  A    between atoms: _411  and  _412
REMARK  170  A    between atoms: _411  and  _414
REMARK  171  A    between atoms: _414  and  _415
REMARK  172  A    between atoms: _415  and  _416
REMARK  173  A    between atoms: _418  and  _420
REMARK  174  A    between atoms: _420  and  _421
REMARK  175  A    between atoms: _420  and  _423
REMARK  176  A    between atoms: _423  and  _424
REMARK  177  A    between atoms: _427  and  _429
REMARK  178  A    between atoms: _429  and  _430
REMARK  179  A    between atoms: _432  and  _434
REMARK  180  A    between atoms: _434  and  _435
REMARK  181  A    between atoms: _437  and  _439
REMARK  182  A    between atoms: _439  and  _440
REMARK  183  A    between atoms: _439  and  _442
REMARK  184  A    between atoms: _442  and  _443
REMARK  185  A    between atoms: _446  and  _448
REMARK  186  A    between atoms: _448  and  _449
REMARK  187  A    between atoms: _451  and  _453
REMARK  188  A    between atoms: _453  and  _454
REMARK  189  A    between atoms: _456  and  _458
REMARK  190  A    between atoms: _458  and  _459
REMARK  191  A    between atoms: _458  and  _461
REMARK  192  A    between atoms: _461  and  _462
REMARK  193  A    between atoms: _468  and  _470
REMARK  194  A    between atoms: _470  and  _471
REMARK  195  A    between atoms: _470  and  _473
REMARK  196  A    between atoms: _473  and  _474
REMARK  197  A    between atoms: _477  and  _479
REMARK  198  A    between atoms: _479  and  _480
REMARK  199  A    between atoms: _479  and  _482
REMARK  200  A    between atoms: _485  and  _487
REMARK  201  A    between atoms: _487  and  _488
REMARK  202  A    between atoms: _487  and  _490
REMARK  203  A    between atoms: _490  and  _491
REMARK  204  A    between atoms: _494  and  _496
REMARK  205  A    between atoms: _496  and  _497
REMARK  206  A    between atoms: _496  and  _499
REMARK  207  A    between atoms: _499  and  _500
REMARK  208  A    between atoms: _504  and  _505
REMARK  209  A    between atoms: _510  and  _512
REMARK  210  A    between atoms: _512  and  _513
REMARK  211  A    between atoms: _512  and  _515
REMARK  212  A    between atoms: _518  and  _520
REMARK  213  A    between atoms: _520  and  _521
REMARK  214  A    between atoms: _520  and  _523
REMARK  215  A    between atoms: _523  and  _524
REMARK  216  A    between atoms: _529  and  _531
REMARK  217  A    between atoms: _531  and  _532
REMARK  218  A    between atoms: _531  and  _534
REMARK  219  A    between atoms: _534  and  _535
REMARK  220  A    between atoms: _538  and  _540
REMARK  221  A    between atoms: _540  and  _541
REMARK  222  A    between atoms: _540  and  _543
REMARK  223  A    between atoms: _543  and  _544
REMARK  224  A    between atoms: _547  and  _549
REMARK  225  A    between atoms: _549  and  _550
REMARK  226  A    between atoms: _552  and  _554
REMARK  227  A    between atoms: _554  and  _555
REMARK  228  A    between atoms: _554  and  _557
REMARK  229  A    between atoms: _557  and  _558
REMARK  230  A    between atoms: _558  and  _559
REMARK  231  A    between atoms: _559  and  _560
REMARK  232  A    between atoms: _569  and  _571
REMARK  233  A    between atoms: _571  and  _572
REMARK  234  A    between atoms: _571  and  _574
REMARK  235  A    between atoms: _574  and  _575
REMARK                            x       y       z     vdW  Elec       q    Type
REMARK                         _______ _______ _______ _____ _____    ______ ____
ROOT
ATOM      1  O   HOH     1      26.032  33.675  11.216  0.00  0.00    +0.000 OA
ENDROOT
TORSDOF 0
REMARK  Name = ../refined-set-2016/2f80/2f80_pocket.pdb
REMARK  235 active torsions:
REMARK  status: ('A' for Active; 'I' for Inactive)
REMARK    1  A    between atoms: _1  and  _3
REMARK    2  A    between atoms: _3  and  _4
REMARK    3  A    between atoms: _3  and  _6
REMARK    4  A    between atoms: _6  and  _7
REMARK    5  A    between atoms: _7  and  _8
REMARK    6  A    between atoms: _8  and  _9
REMARK    7  A    between atoms: _18  and  _20
REMARK    8  A    between atoms: _20  and  _21
REMARK    9  A    between atoms: _20  and  _23
REMARK   10  A    between atoms: _23  and  _24
REMARK   11  A    between atoms: _27  and  _29
REMARK   12  A    between atoms: _29  and  _30
REMARK   13  A    between atoms: _29  and  _32
REMARK   14  A    between atoms: _32  and  _33
REMARK   15  A    between atoms: _36  and  _38
REMARK   16  A    between atoms: _38  and  _39
REMARK   17  A    between atoms: _38  and  _41
REMARK   18  A    between atoms: _41  and  _42
REMARK   19  A    between atoms: _45  and  _47
REMARK   20  A    between atoms: _47  and  _48
REMARK   21  A    between atoms: _47  and  _50
REMARK   22  A    between atoms: _50  and  _51
REMARK   23  A    between atoms: _54  and  _56
REMARK   24  A    between atoms: _56  and  _57
REMARK   25  A    between atoms: _59  and  _61
REMARK   26  A    between atoms: _61  and  _62
REMARK   27  A    between atoms: _65  and  _67
REMARK   28  A    between atoms: _67  and  _68
REMARK   29  A    between atoms: _67  and  _70
REMARK   30  A    between atoms: _70  and  _71
REMARK   31  A    between atoms: _74  and  _76
REMARK   32  A    between atoms: _76  and  _77
REMARK   33  A    between atoms: _76  and  _79
REMARK   34  A    between atoms: _79  and  _80
REMARK   35  A    between atoms: _85  and  _87
REMARK   36  A    between atoms: _87  and  _88
REMARK   37  A    between atoms: _87  and  _90
REMARK   38  A    between atoms: _90  and  _91
REMARK   39  A    between atoms: _94  and  _96
REMARK   40  A    between atoms: _96  and  _97
REMARK   41  A    between atoms: _96  and  _99
REMARK   42  A    between atoms: _102  and  _104
REMARK   43  A    between atoms: _104  and  _105
REMARK   44  A    between atoms: _104  and  _107
REMARK   45  A    between atoms: _107  and  _108
REMARK   46  A    between atoms: _111  and  _113
REMARK   47  A    between atoms: _113  and  _114
REMARK   48  A    between atoms: _113  and  _116
REMARK   49  A    between atoms: _117  and  _118
REMARK   50  A    between atoms: _118  and  _119
REMARK   51  A    between atoms: _119  and  _120
REMARK   52  A    between atoms: _124  and  _126
REMARK   53  A    between atoms: _126  and  _127
REMARK   54  A    between atoms: _126  and  _129
REMARK   55  A    between atoms: _129  and  _130
REMARK   56  A    between atoms: _130  and  _131
REMARK   57  A    between atoms: _133  and  _135
REMARK   58  A    between atoms: _135  and  _136
REMARK   59  A    between atoms: _135  and  _138
REMARK   60  A    between atoms: _138  and  _139
REMARK   61  A    between atoms: _142  and  _144
REMARK   62  A    between atoms: _144  and  _145
REMARK   63  A    between atoms: _147  and  _149
REMARK   64  A    between atoms: _149  and  _150
REMARK   65  A    between atoms: _152  and  _154
REMARK   66  A    between atoms: _154  and  _155
REMARK   67  A    between atoms: _154  and  _157
REMARK   68  A    between atoms: _157  and  _158
REMARK   69  A    between atoms: _161  and  _163
REMARK   70  A    between atoms: _163  and  _164
REMARK   71  A    between atoms: _166  and  _168
REMARK   72  A    between atoms: _168  and  _169
REMARK   73  A    between atoms: _171  and  _173
REMARK   74  A    between atoms: _173  and  _174
REMARK   75  A    between atoms: _173  and  _176
REMARK   76  A    between atoms: _176  and  _177
REMARK   77  A    between atoms: _183  and  _185
REMARK   78  A    between atoms: _185  and  _186
REMARK   79  A    between atoms: _185  and  _188
REMARK   80  A    between atoms: _188  and  _189
REMARK   81  A    between atoms: _192  and  _194
REMARK   82  A    between atoms: _194  and  _195
REMARK   83  A    between atoms: _194  and  _197
REMARK   84  A    between atoms: _200  and  _202
REMARK   85  A    between atoms: _202  and  _203
REMARK   86  A    between atoms: _202  and  _205
REMARK   87  A    between atoms: _205  and  _206
REMARK   88  A    between atoms: _209  and  _211
REMARK   89  A    between atoms: _211  and  _212
REMARK   90  A    between atoms: _211  and  _214
REMARK   91  A    between atoms: _214  and  _215
REMARK   92  A    between atoms: _219  and  _220
REMARK   93  A    between atoms: _225  and  _227
REMARK   94  A    between atoms: _227  and  _228
REMARK   95  A    between atoms: _227  and  _230
REMARK   96  A    between atoms: _233  and  _235
REMARK   97  A    between atoms: _235  and  _236
REMARK   98  A    between atoms: _235  and  _238
REMARK   99  A    between atoms: _238  and  _239
REMARK  100  A    between atoms: _244  and  _246
REMARK  101  A    between atoms: _246  and  _247
REMARK  102  A    between atoms: _246  and  _249
REMARK  103  A    between atoms: _249  and  _250
REMARK  104  A    between atoms: _253  and  _255
REMARK  105  A    between atoms: _255  and  _256
REMARK  106  A    between atoms: _255  and  _258
REMARK  107  A    between atoms: _258  and  _259
REMARK  108  A    between atoms: _262  and  _264
REMARK  109  A    between atoms: _264  and  _265
REMARK  110  A    between atoms: _267  and  _269
REMARK  111  A    between atoms: _269  and  _270
REMARK  112  A    between atoms: _269  and  _272
REMARK  113  A    between atoms: _272  and  _273
REMARK  114  A    between atoms: _273  and  _274
REMARK  115  A    between atoms: _274  and  _275
REMARK  116  A    between atoms: _284  and  _286
REMARK  117  A    between atoms: _286  and  _287
REMARK  118  A    between atoms: _286  and  _289
REMARK  119  A    between atoms: _289  and  _290
REMARK  120  A    between atoms: _295  and  _297
REMARK  121  A    between atoms: _297  and  _298
REMARK  122  A    between atoms: _297  and  _300
REMARK  123  A    between atoms: _300  and  _301
REMARK  124  A    between atoms: _301  and  _302
REMARK  125  A    between atoms: _302  and  _303
REMARK  126  A    between atoms: _312  and  _314
REMARK  127  A    between atoms: _314  and  _315
REMARK  128  A    between atoms: _314  and  _317
REMARK  129  A    between atoms: _317  and  _318
REMARK  130  A    between atoms: _321  and  _323
REMARK  131  A    between atoms: _323  and  _324
REMARK  132  A    between atoms: _323  and  _326
REMARK  133  A    between atoms: _326  and  _327
REMARK  134  A    between atoms: _330  and  _332
REMARK  135  A    between atoms: _332  and  _333
REMARK  136  A    between atoms: _332  and  _335
REMARK  137  A    between atoms: _335  and  _336
REMARK  138  A    between atoms: _339  and  _341
REMARK  139  A    between atoms: _341  and  _342
REMARK  140  A    between atoms: _341  and  _344
REMARK  141  A    between atoms: _344  and  _345
REMARK  142  A    between atoms: _348  and  _350
REMARK  143  A    between atoms: _350  and  _351
REMARK  144  A    between atoms: _353  and  _355
REMARK  145  A    between atoms: _355  and  _356
REMARK  146  A    between atoms: _359  and  _361
REMARK  147  A    between atoms: _361  and  _362
REMARK  148  A    between atoms: _361  and  _364
REMARK  149  A    between atoms: _364  and  _365
REMARK  150  A    between atoms: _368  and  _370
REMARK  151  A    between atoms: _370  and  _371
REMARK  152  A    between atoms: _370  and  _373
REMARK  153  A    between atoms: _373  and  _374
REMARK  154  A    between atoms: _379  and  _381
REMARK  155  A    between atoms: _381  and  _382
REMARK  156  A    between atoms: _381  and  _384
REMARK  157  A    between atoms: _384  and  _385
REMARK  158  A    between atoms: _388  and  _390
REMARK  159  A    between atoms: _390  and  _391
REMARK  160  A    between atoms: _390  and  _393
REMARK  161  A    between atoms: _396  and  _398
REMARK  162  A    between atoms: _398  and  _399
REMARK  163  A    between atoms: _398  and  _401
REMARK  164  A    between atoms: _401  and  _402
REMARK  165  A    between atoms: _402  and  _403
REMARK  166  A    between atoms: _403  and  _404
REMARK  167  A    between atoms: _404  and  _405
REMARK  168  A    between atoms: _409  and  _411
REMARK  169  A    between atoms: _411  and  _412
REMARK  170  A    between atoms: _411  and  _414
REMARK  171  A    between atoms: _414  and  _415
REMARK  172  A    between atoms: _415  and  _416
REMARK  173  A    between atoms: _418  and  _420
REMARK  174  A    between atoms: _420  and  _421
REMARK  175  A    between atoms: _420  and  _423
REMARK  176  A    between atoms: _423  and  _424
REMARK  177  A    between atoms: _427  and  _429
REMARK  178  A    between atoms: _429  and  _430
REMARK  179  A    between atoms: _432  and  _434
REMARK  180  A    between atoms: _434  and  _435
REMARK  181  A    between atoms: _437  and  _439
REMARK  182  A    between atoms: _439  and  _440
REMARK  183  A    between atoms: _439  and  _442
REMARK  184  A    between atoms: _442  and  _443
REMARK  185  A    between atoms: _446  and  _448
REMARK  186  A    between atoms: _448  and  _449
REMARK  187  A    between atoms: _451  and  _453
REMARK  188  A    between atoms: _453  and  _454
REMARK  189  A    between atoms: _456  and  _458
REMARK  190  A    between atoms: _458  and  _459
REMARK  191  A    between atoms: _458  and  _461
REMARK  192  A    between atoms: _461  and  _462
REMARK  193  A    between atoms: _468  and  _470
REMARK  194  A    between atoms: _470  and  _471
REMARK  195  A    between atoms: _470  and  _473
REMARK  196  A    between atoms: _473  and  _474
REMARK  197  A    between atoms: _477  and  _479
REMARK  198  A    between atoms: _479  and  _480
REMARK  199  A    between atoms: _479  and  _482
REMARK  200  A    between atoms: _485  and  _487
REMARK  201  A    between atoms: _487  and  _488
REMARK  202  A    between atoms: _487  and  _490
REMARK  203  A    between atoms: _490  and  _491
REMARK  204  A    between atoms: _494  and  _496
REMARK  205  A    between atoms: _496  and  _497
REMARK  206  A    between atoms: _496  and  _499
REMARK  207  A    between atoms: _499  and  _500
REMARK  208  A    between atoms: _504  and  _505
REMARK  209  A    between atoms: _510  and  _512
REMARK  210  A    between atoms: _512  and  _513
REMARK  211  A    between atoms: _512  and  _515
REMARK  212  A    between atoms: _518  and  _520
REMARK  213  A    between atoms: _520  and  _521
REMARK  214  A    between atoms: _520  and  _523
REMARK  215  A    between atoms: _523  and  _524
REMARK  216  A    between atoms: _529  and  _531
REMARK  217  A    between atoms: _531  and  _532
REMARK  218  A    between atoms: _531  and  _534
REMARK  219  A    between atoms: _534  and  _535
REMARK  220  A    between atoms: _538  and  _540
REMARK  221  A    between atoms: _540  and  _541
REMARK  222  A    between atoms: _540  and  _543
REMARK  223  A    between atoms: _543  and  _544
REMARK  224  A    between atoms: _547  and  _549
REMARK  225  A    between atoms: _549  and  _550
REMARK  226  A    between atoms: _552  and  _554
REMARK  227  A    between atoms: _554  and  _555
REMARK  228  A    between atoms: _554  and  _557
REMARK  229  A    between atoms: _557  and  _558
REMARK  230  A    between atoms: _558  and  _559
REMARK  231  A    between atoms: _559  and  _560
REMARK  232  A    between atoms: _569  and  _571
REMARK  233  A    between atoms: _571  and  _572
REMARK  234  A    between atoms: _571  and  _574
REMARK  235  A    between atoms: _574  and  _575
REMARK                            x       y       z     vdW  Elec       q    Type
REMARK                         _______ _______ _______ _____ _____    ______ ____
ROOT
ATOM      1  O   HOH     1      24.033  30.044  14.312  0.00  0.00    +0.000 OA
ENDROOT
TORSDOF 0
REMARK  Name = ../refined-set-2016/2f80/2f80_pocket.pdb
REMARK  235 active torsions:
REMARK  status: ('A' for Active; 'I' for Inactive)
REMARK    1  A    between atoms: _1  and  _3
REMARK    2  A    between atoms: _3  and  _4
REMARK    3  A    between atoms: _3  and  _6
REMARK    4  A    between atoms: _6  and  _7
REMARK    5  A    between atoms: _7  and  _8
REMARK    6  A    between atoms: _8  and  _9
REMARK    7  A    between atoms: _18  and  _20
REMARK    8  A    between atoms: _20  and  _21
REMARK    9  A    between atoms: _20  and  _23
REMARK   10  A    between atoms: _23  and  _24
REMARK   11  A    between atoms: _27  and  _29
REMARK   12  A    between atoms: _29  and  _30
REMARK   13  A    between atoms: _29  and  _32
REMARK   14  A    between atoms: _32  and  _33
REMARK   15  A    between atoms: _36  and  _38
REMARK   16  A    between atoms: _38  and  _39
REMARK   17  A    between atoms: _38  and  _41
REMARK   18  A    between atoms: _41  and  _42
REMARK   19  A    between atoms: _45  and  _47
REMARK   20  A    between atoms: _47  and  _48
REMARK   21  A    between atoms: _47  and  _50
REMARK   22  A    between atoms: _50  and  _51
REMARK   23  A    between atoms: _54  and  _56
REMARK   24  A    between atoms: _56  and  _57
REMARK   25  A    between atoms: _59  and  _61
REMARK   26  A    between atoms: _61  and  _62
REMARK   27  A    between atoms: _65  and  _67
REMARK   28  A    between atoms: _67  and  _68
REMARK   29  A    between atoms: _67  and  _70
REMARK   30  A    between atoms: _70  and  _71
REMARK   31  A    between atoms: _74  and  _76
REMARK   32  A    between atoms: _76  and  _77
REMARK   33  A    between atoms: _76  and  _79
REMARK   34  A    between atoms: _79  and  _80
REMARK   35  A    between atoms: _85  and  _87
REMARK   36  A    between atoms: _87  and  _88
REMARK   37  A    between atoms: _87  and  _90
REMARK   38  A    between atoms: _90  and  _91
REMARK   39  A    between atoms: _94  and  _96
REMARK   40  A    between atoms: _96  and  _97
REMARK   41  A    between atoms: _96  and  _99
REMARK   42  A    between atoms: _102  and  _104
REMARK   43  A    between atoms: _104  and  _105
REMARK   44  A    between atoms: _104  and  _107
REMARK   45  A    between atoms: _107  and  _108
REMARK   46  A    between atoms: _111  and  _113
REMARK   47  A    between atoms: _113  and  _114
REMARK   48  A    between atoms: _113  and  _116
REMARK   49  A    between atoms: _117  and  _118
REMARK   50  A    between atoms: _118  and  _119
REMARK   51  A    between atoms: _119  and  _120
REMARK   52  A    between atoms: _124  and  _126
REMARK   53  A    between atoms: _126  and  _127
REMARK   54  A    between atoms: _126  and  _129
REMARK   55  A    between atoms: _129  and  _130
REMARK   56  A    between atoms: _130  and  _131
REMARK   57  A    between atoms: _133  and  _135
REMARK   58  A    between atoms: _135  and  _136
REMARK   59  A    between atoms: _135  and  _138
REMARK   60  A    between atoms: _138  and  _139
REMARK   61  A    between atoms: _142  and  _144
REMARK   62  A    between atoms: _144  and  _145
REMARK   63  A    between atoms: _147  and  _149
REMARK   64  A    between atoms: _149  and  _150
REMARK   65  A    between atoms: _152  and  _154
REMARK   66  A    between atoms: _154  and  _155
REMARK   67  A    between atoms: _154  and  _157
REMARK   68  A    between atoms: _157  and  _158
REMARK   69  A    between atoms: _161  and  _163
REMARK   70  A    between atoms: _163  and  _164
REMARK   71  A    between atoms: _166  and  _168
REMARK   72  A    between atoms: _168  and  _169
REMARK   73  A    between atoms: _171  and  _173
REMARK   74  A    between atoms: _173  and  _174
REMARK   75  A    between atoms: _173  and  _176
REMARK   76  A    between atoms: _176  and  _177
REMARK   77  A    between atoms: _183  and  _185
REMARK   78  A    between atoms: _185  and  _186
REMARK   79  A    between atoms: _185  and  _188
REMARK   80  A    between atoms: _188  and  _189
REMARK   81  A    between atoms: _192  and  _194
REMARK   82  A    between atoms: _194  and  _195
REMARK   83  A    between atoms: _194  and  _197
REMARK   84  A    between atoms: _200  and  _202
REMARK   85  A    between atoms: _202  and  _203
REMARK   86  A    between atoms: _202  and  _205
REMARK   87  A    between atoms: _205  and  _206
REMARK   88  A    between atoms: _209  and  _211
REMARK   89  A    between atoms: _211  and  _212
REMARK   90  A    between atoms: _211  and  _214
REMARK   91  A    between atoms: _214  and  _215
REMARK   92  A    between atoms: _219  and  _220
REMARK   93  A    between atoms: _225  and  _227
REMARK   94  A    between atoms: _227  and  _228
REMARK   95  A    between atoms: _227  and  _230
REMARK   96  A    between atoms: _233  and  _235
REMARK   97  A    between atoms: _235  and  _236
REMARK   98  A    between atoms: _235  and  _238
REMARK   99  A    between atoms: _238  and  _239
REMARK  100  A    between atoms: _244  and  _246
REMARK  101  A    between atoms: _246  and  _247
REMARK  102  A    between atoms: _246  and  _249
REMARK  103  A    between atoms: _249  and  _250
REMARK  104  A    between atoms: _253  and  _255
REMARK  105  A    between atoms: _255  and  _256
REMARK  106  A    between atoms: _255  and  _258
REMARK  107  A    between atoms: _258  and  _259
REMARK  108  A    between atoms: _262  and  _264
REMARK  109  A    between atoms: _264  and  _265
REMARK  110  A    between atoms: _267  and  _269
REMARK  111  A    between atoms: _269  and  _270
REMARK  112  A    between atoms: _269  and  _272
REMARK  113  A    between atoms: _272  and  _273
REMARK  114  A    between atoms: _273  and  _274
REMARK  115  A    between atoms: _274  and  _275
REMARK  116  A    between atoms: _284  and  _286
REMARK  117  A    between atoms: _286  and  _287
REMARK  118  A    between atoms: _286  and  _289
REMARK  119  A    between atoms: _289  and  _290
REMARK  120  A    between atoms: _295  and  _297
REMARK  121  A    between atoms: _297  and  _298
REMARK  122  A    between atoms: _297  and  _300
REMARK  123  A    between atoms: _300  and  _301
REMARK  124  A    between atoms: _301  and  _302
REMARK  125  A    between atoms: _302  and  _303
REMARK  126  A    between atoms: _312  and  _314
REMARK  127  A    between atoms: _314  and  _315
REMARK  128  A    between atoms: _314  and  _317
REMARK  129  A    between atoms: _317  and  _318
REMARK  130  A    between atoms: _321  and  _323
REMARK  131  A    between atoms: _323  and  _324
REMARK  132  A    between atoms: _323  and  _326
REMARK  133  A    between atoms: _326  and  _327
REMARK  134  A    between atoms: _330  and  _332
REMARK  135  A    between atoms: _332  and  _333
REMARK  136  A    between atoms: _332  and  _335
REMARK  137  A    between atoms: _335  and  _336
REMARK  138  A    between atoms: _339  and  _341
REMARK  139  A    between atoms: _341  and  _342
REMARK  140  A    between atoms: _341  and  _344
REMARK  141  A    between atoms: _344  and  _345
REMARK  142  A    between atoms: _348  and  _350
REMARK  143  A    between atoms: _350  and  _351
REMARK  144  A    between atoms: _353  and  _355
REMARK  145  A    between atoms: _355  and  _356
REMARK  146  A    between atoms: _359  and  _361
REMARK  147  A    between atoms: _361  and  _362
REMARK  148  A    between atoms: _361  and  _364
REMARK  149  A    between atoms: _364  and  _365
REMARK  150  A    between atoms: _368  and  _370
REMARK  151  A    between atoms: _370  and  _371
REMARK  152  A    between atoms: _370  and  _373
REMARK  153  A    between atoms: _373  and  _374
REMARK  154  A    between atoms: _379  and  _381
REMARK  155  A    between atoms: _381  and  _382
REMARK  156  A    between atoms: _381  and  _384
REMARK  157  A    between atoms: _384  and  _385
REMARK  158  A    between atoms: _388  and  _390
REMARK  159  A    between atoms: _390  and  _391
REMARK  160  A    between atoms: _390  and  _393
REMARK  161  A    between atoms: _396  and  _398
REMARK  162  A    between atoms: _398  and  _399
REMARK  163  A    between atoms: _398  and  _401
REMARK  164  A    between atoms: _401  and  _402
REMARK  165  A    between atoms: _402  and  _403
REMARK  166  A    between atoms: _403  and  _404
REMARK  167  A    between atoms: _404  and  _405
REMARK  168  A    between atoms: _409  and  _411
REMARK  169  A    between atoms: _411  and  _412
REMARK  170  A    between atoms: _411  and  _414
REMARK  171  A    between atoms: _414  and  _415
REMARK  172  A    between atoms: _415  and  _416
REMARK  173  A    between atoms: _418  and  _420
REMARK  174  A    between atoms: _420  and  _421
REMARK  175  A    between atoms: _420  and  _423
REMARK  176  A    between atoms: _423  and  _424
REMARK  177  A    between atoms: _427  and  _429
REMARK  178  A    between atoms: _429  and  _430
REMARK  179  A    between atoms: _432  and  _434
REMARK  180  A    between atoms: _434  and  _435
REMARK  181  A    between atoms: _437  and  _439
REMARK  182  A    between atoms: _439  and  _440
REMARK  183  A    between atoms: _439  and  _442
REMARK  184  A    between atoms: _442  and  _443
REMARK  185  A    between atoms: _446  and  _448
REMARK  186  A    between atoms: _448  and  _449
REMARK  187  A    between atoms: _451  and  _453
REMARK  188  A    between atoms: _453  and  _454
REMARK  189  A    between atoms: _456  and  _458
REMARK  190  A    between atoms: _458  and  _459
REMARK  191  A    between atoms: _458  and  _461
REMARK  192  A    between atoms: _461  and  _462
REMARK  193  A    between atoms: _468  and  _470
REMARK  194  A    between atoms: _470  and  _471
REMARK  195  A    between atoms: _470  and  _473
REMARK  196  A    between atoms: _473  and  _474
REMARK  197  A    between atoms: _477  and  _479
REMARK  198  A    between atoms: _479  and  _480
REMARK  199  A    between atoms: _479  and  _482
REMARK  200  A    between atoms: _485  and  _487
REMARK  201  A    between atoms: _487  and  _488
REMARK  202  A    between atoms: _487  and  _490
REMARK  203  A    between atoms: _490  and  _491
REMARK  204  A    between atoms: _494  and  _496
REMARK  205  A    between atoms: _496  and  _497
REMARK  206  A    between atoms: _496  and  _499
REMARK  207  A    between atoms: _499  and  _500
REMARK  208  A    between atoms: _504  and  _505
REMARK  209  A    between atoms: _510  and  _512
REMARK  210  A    between atoms: _512  and  _513
REMARK  211  A    between atoms: _512  and  _515
REMARK  212  A    between atoms: _518  and  _520
REMARK  213  A    between atoms: _520  and  _521
REMARK  214  A    between atoms: _520  and  _523
REMARK  215  A    between atoms: _523  and  _524
REMARK  216  A    between atoms: _529  and  _531
REMARK  217  A    between atoms: _531  and  _532
REMARK  218  A    between atoms: _531  and  _534
REMARK  219  A    between atoms: _534  and  _535
REMARK  220  A    between atoms: _538  and  _540
REMARK  221  A    between atoms: _540  and  _541
REMARK  222  A    between atoms: _540  and  _543
REMARK  223  A    between atoms: _543  and  _544
REMARK  224  A    between atoms: _547  and  _549
REMARK  225  A    between atoms: _549  and  _550
REMARK  226  A    between atoms: _552  and  _554
REMARK  227  A    between atoms: _554  and  _555
REMARK  228  A    between atoms: _554  and  _557
REMARK  229  A    between atoms: _557  and  _558
REMARK  230  A    between atoms: _558  and  _559
REMARK  231  A    between atoms: _559  and  _560
REMARK  232  A    between atoms: _569  and  _571
REMARK  233  A    between atoms: _571  and  _572
REMARK  234  A    between atoms: _571  and  _574
REMARK  235  A    between atoms: _574  and  _575
REMARK                            x       y       z     vdW  Elec       q    Type
REMARK                         _______ _______ _______ _____ _____    ______ ____
ROOT
ATOM      1  O   HOH     1      25.655  25.880  16.217  0.00  0.00    +0.000 OA
ENDROOT
TORSDOF 0
REMARK  Name = ../refined-set-2016/2f80/2f80_pocket.pdb
REMARK  235 active torsions:
REMARK  status: ('A' for Active; 'I' for Inactive)
REMARK    1  A    between atoms: _1  and  _3
REMARK    2  A    between atoms: _3  and  _4
REMARK    3  A    between atoms: _3  and  _6
REMARK    4  A    between atoms: _6  and  _7
REMARK    5  A    between atoms: _7  and  _8
REMARK    6  A    between atoms: _8  and  _9
REMARK    7  A    between atoms: _18  and  _20
REMARK    8  A    between atoms: _20  and  _21
REMARK    9  A    between atoms: _20  and  _23
REMARK   10  A    between atoms: _23  and  _24
REMARK   11  A    between atoms: _27  and  _29
REMARK   12  A    between atoms: _29  and  _30
REMARK   13  A    between atoms: _29  and  _32
REMARK   14  A    between atoms: _32  and  _33
REMARK   15  A    between atoms: _36  and  _38
REMARK   16  A    between atoms: _38  and  _39
REMARK   17  A    between atoms: _38  and  _41
REMARK   18  A    between atoms: _41  and  _42
REMARK   19  A    between atoms: _45  and  _47
REMARK   20  A    between atoms: _47  and  _48
REMARK   21  A    between atoms: _47  and  _50
REMARK   22  A    between atoms: _50  and  _51
REMARK   23  A    between atoms: _54  and  _56
REMARK   24  A    between atoms: _56  and  _57
REMARK   25  A    between atoms: _59  and  _61
REMARK   26  A    between atoms: _61  and  _62
REMARK   27  A    between atoms: _65  and  _67
REMARK   28  A    between atoms: _67  and  _68
REMARK   29  A    between atoms: _67  and  _70
REMARK   30  A    between atoms: _70  and  _71
REMARK   31  A    between atoms: _74  and  _76
REMARK   32  A    between atoms: _76  and  _77
REMARK   33  A    between atoms: _76  and  _79
REMARK   34  A    between atoms: _79  and  _80
REMARK   35  A    between atoms: _85  and  _87
REMARK   36  A    between atoms: _87  and  _88
REMARK   37  A    between atoms: _87  and  _90
REMARK   38  A    between atoms: _90  and  _91
REMARK   39  A    between atoms: _94  and  _96
REMARK   40  A    between atoms: _96  and  _97
REMARK   41  A    between atoms: _96  and  _99
REMARK   42  A    between atoms: _102  and  _104
REMARK   43  A    between atoms: _104  and  _105
REMARK   44  A    between atoms: _104  and  _107
REMARK   45  A    between atoms: _107  and  _108
REMARK   46  A    between atoms: _111  and  _113
REMARK   47  A    between atoms: _113  and  _114
REMARK   48  A    between atoms: _113  and  _116
REMARK   49  A    between atoms: _117  and  _118
REMARK   50  A    between atoms: _118  and  _119
REMARK   51  A    between atoms: _119  and  _120
REMARK   52  A    between atoms: _124  and  _126
REMARK   53  A    between atoms: _126  and  _127
REMARK   54  A    between atoms: _126  and  _129
REMARK   55  A    between atoms: _129  and  _130
REMARK   56  A    between atoms: _130  and  _131
REMARK   57  A    between atoms: _133  and  _135
REMARK   58  A    between atoms: _135  and  _136
REMARK   59  A    between atoms: _135  and  _138
REMARK   60  A    between atoms: _138  and  _139
REMARK   61  A    between atoms: _142  and  _144
REMARK   62  A    between atoms: _144  and  _145
REMARK   63  A    between atoms: _147  and  _149
REMARK   64  A    between atoms: _149  and  _150
REMARK   65  A    between atoms: _152  and  _154
REMARK   66  A    between atoms: _154  and  _155
REMARK   67  A    between atoms: _154  and  _157
REMARK   68  A    between atoms: _157  and  _158
REMARK   69  A    between atoms: _161  and  _163
REMARK   70  A    between atoms: _163  and  _164
REMARK   71  A    between atoms: _166  and  _168
REMARK   72  A    between atoms: _168  and  _169
REMARK   73  A    between atoms: _171  and  _173
REMARK   74  A    between atoms: _173  and  _174
REMARK   75  A    between atoms: _173  and  _176
REMARK   76  A    between atoms: _176  and  _177
REMARK   77  A    between atoms: _183  and  _185
REMARK   78  A    between atoms: _185  and  _186
REMARK   79  A    between atoms: _185  and  _188
REMARK   80  A    between atoms: _188  and  _189
REMARK   81  A    between atoms: _192  and  _194
REMARK   82  A    between atoms: _194  and  _195
REMARK   83  A    between atoms: _194  and  _197
REMARK   84  A    between atoms: _200  and  _202
REMARK   85  A    between atoms: _202  and  _203
REMARK   86  A    between atoms: _202  and  _205
REMARK   87  A    between atoms: _205  and  _206
REMARK   88  A    between atoms: _209  and  _211
REMARK   89  A    between atoms: _211  and  _212
REMARK   90  A    between atoms: _211  and  _214
REMARK   91  A    between atoms: _214  and  _215
REMARK   92  A    between atoms: _219  and  _220
REMARK   93  A    between atoms: _225  and  _227
REMARK   94  A    between atoms: _227  and  _228
REMARK   95  A    between atoms: _227  and  _230
REMARK   96  A    between atoms: _233  and  _235
REMARK   97  A    between atoms: _235  and  _236
REMARK   98  A    between atoms: _235  and  _238
REMARK   99  A    between atoms: _238  and  _239
REMARK  100  A    between atoms: _244  and  _246
REMARK  101  A    between atoms: _246  and  _247
REMARK  102  A    between atoms: _246  and  _249
REMARK  103  A    between atoms: _249  and  _250
REMARK  104  A    between atoms: _253  and  _255
REMARK  105  A    between atoms: _255  and  _256
REMARK  106  A    between atoms: _255  and  _258
REMARK  107  A    between atoms: _258  and  _259
REMARK  108  A    between atoms: _262  and  _264
REMARK  109  A    between atoms: _264  and  _265
REMARK  110  A    between atoms: _267  and  _269
REMARK  111  A    between atoms: _269  and  _270
REMARK  112  A    between atoms: _269  and  _272
REMARK  113  A    between atoms: _272  and  _273
REMARK  114  A    between atoms: _273  and  _274
REMARK  115  A    between atoms: _274  and  _275
REMARK  116  A    between atoms: _284  and  _286
REMARK  117  A    between atoms: _286  and  _287
REMARK  118  A    between atoms: _286  and  _289
REMARK  119  A    between atoms: _289  and  _290
REMARK  120  A    between atoms: _295  and  _297
REMARK  121  A    between atoms: _297  and  _298
REMARK  122  A    between atoms: _297  and  _300
REMARK  123  A    between atoms: _300  and  _301
REMARK  124  A    between atoms: _301  and  _302
REMARK  125  A    between atoms: _302  and  _303
REMARK  126  A    between atoms: _312  and  _314
REMARK  127  A    between atoms: _314  and  _315
REMARK  128  A    between atoms: _314  and  _317
REMARK  129  A    between atoms: _317  and  _318
REMARK  130  A    between atoms: _321  and  _323
REMARK  131  A    between atoms: _323  and  _324
REMARK  132  A    between atoms: _323  and  _326
REMARK  133  A    between atoms: _326  and  _327
REMARK  134  A    between atoms: _330  and  _332
REMARK  135  A    between atoms: _332  and  _333
REMARK  136  A    between atoms: _332  and  _335
REMARK  137  A    between atoms: _335  and  _336
REMARK  138  A    between atoms: _339  and  _341
REMARK  139  A    between atoms: _341  and  _342
REMARK  140  A    between atoms: _341  and  _344
REMARK  141  A    between atoms: _344  and  _345
REMARK  142  A    between atoms: _348  and  _350
REMARK  143  A    between atoms: _350  and  _351
REMARK  144  A    between atoms: _353  and  _355
REMARK  145  A    between atoms: _355  and  _356
REMARK  146  A    between atoms: _359  and  _361
REMARK  147  A    between atoms: _361  and  _362
REMARK  148  A    between atoms: _361  and  _364
REMARK  149  A    between atoms: _364  and  _365
REMARK  150  A    between atoms: _368  and  _370
REMARK  151  A    between atoms: _370  and  _371
REMARK  152  A    between atoms: _370  and  _373
REMARK  153  A    between atoms: _373  and  _374
REMARK  154  A    between atoms: _379  and  _381
REMARK  155  A    between atoms: _381  and  _382
REMARK  156  A    between atoms: _381  and  _384
REMARK  157  A    between atoms: _384  and  _385
REMARK  158  A    between atoms: _388  and  _390
REMARK  159  A    between atoms: _390  and  _391
REMARK  160  A    between atoms: _390  and  _393
REMARK  161  A    between atoms: _396  and  _398
REMARK  162  A    between atoms: _398  and  _399
REMARK  163  A    between atoms: _398  and  _401
REMARK  164  A    between atoms: _401  and  _402
REMARK  165  A    between atoms: _402  and  _403
REMARK  166  A    between atoms: _403  and  _404
REMARK  167  A    between atoms: _404  and  _405
REMARK  168  A    between atoms: _409  and  _411
REMARK  169  A    between atoms: _411  and  _412
REMARK  170  A    between atoms: _411  and  _414
REMARK  171  A    between atoms: _414  and  _415
REMARK  172  A    between atoms: _415  and  _416
REMARK  173  A    between atoms: _418  and  _420
REMARK  174  A    between atoms: _420  and  _421
REMARK  175  A    between atoms: _420  and  _423
REMARK  176  A    between atoms: _423  and  _424
REMARK  177  A    between atoms: _427  and  _429
REMARK  178  A    between atoms: _429  and  _430
REMARK  179  A    between atoms: _432  and  _434
REMARK  180  A    between atoms: _434  and  _435
REMARK  181  A    between atoms: _437  and  _439
REMARK  182  A    between atoms: _439  and  _440
REMARK  183  A    between atoms: _439  and  _442
REMARK  184  A    between atoms: _442  and  _443
REMARK  185  A    between atoms: _446  and  _448
REMARK  186  A    between atoms: _448  and  _449
REMARK  187  A    between atoms: _451  and  _453
REMARK  188  A    between atoms: _453  and  _454
REMARK  189  A    between atoms: _456  and  _458
REMARK  190  A    between atoms: _458  and  _459
REMARK  191  A    between atoms: _458  and  _461
REMARK  192  A    between atoms: _461  and  _462
REMARK  193  A    between atoms: _468  and  _470
REMARK  194  A    between atoms: _470  and  _471
REMARK  195  A    between atoms: _470  and  _473
REMARK  196  A    between atoms: _473  and  _474
REMARK  197  A    between atoms: _477  and  _479
REMARK  198  A    between atoms: _479  and  _480
REMARK  199  A    between atoms: _479  and  _482
REMARK  200  A    between atoms: _485  and  _487
REMARK  201  A    between atoms: _487  and  _488
REMARK  202  A    between atoms: _487  and  _490
REMARK  203  A    between atoms: _490  and  _491
REMARK  204  A    between atoms: _494  and  _496
REMARK  205  A    between atoms: _496  and  _497
REMARK  206  A    between atoms: _496  and  _499
REMARK  207  A    between atoms: _499  and  _500
REMARK  208  A    between atoms: _504  and  _505
REMARK  209  A    between atoms: _510  and  _512
REMARK  210  A    between atoms: _512  and  _513
REMARK  211  A    between atoms: _512  and  _515
REMARK  212  A    between atoms: _518  and  _520
REMARK  213  A    between atoms: _520  and  _521
REMARK  214  A    between atoms: _520  and  _523
REMARK  215  A    between atoms: _523  and  _524
REMARK  216  A    between atoms: _529  and  _531
REMARK  217  A    between atoms: _531  and  _532
REMARK  218  A    between atoms: _531  and  _534
REMARK  219  A    between atoms: _534  and  _535
REMARK  220  A    between atoms: _538  and  _540
REMARK  221  A    between atoms: _540  and  _541
REMARK  222  A    between atoms: _540  and  _543
REMARK  223  A    between atoms: _543  and  _544
REMARK  224  A    between atoms: _547  and  _549
REMARK  225  A    between atoms: _549  and  _550
REMARK  226  A    between atoms: _552  and  _554
REMARK  227  A    between atoms: _554  and  _555
REMARK  228  A    between atoms: _554  and  _557
REMARK  229  A    between atoms: _557  and  _558
REMARK  230  A    between atoms: _558  and  _559
REMARK  231  A    between atoms: _559  and  _560
REMARK  232  A    between atoms: _569  and  _571
REMARK  233  A    between atoms: _571  and  _572
REMARK  234  A    between atoms: _571  and  _574
REMARK  235  A    between atoms: _574  and  _575
REMARK                            x       y       z     vdW  Elec       q    Type
REMARK                         _______ _______ _______ _____ _____    ______ ____
ROOT
ATOM      1  O   HOH     1       7.063  22.551  11.453  0.00  0.00    +0.000 OA
ENDROOT
TORSDOF 0
REMARK  Name = ../refined-set-2016/2f80/2f80_pocket.pdb
REMARK  235 active torsions:
REMARK  status: ('A' for Active; 'I' for Inactive)
REMARK    1  A    between atoms: _1  and  _3
REMARK    2  A    between atoms: _3  and  _4
REMARK    3  A    between atoms: _3  and  _6
REMARK    4  A    between atoms: _6  and  _7
REMARK    5  A    between atoms: _7  and  _8
REMARK    6  A    between atoms: _8  and  _9
REMARK    7  A    between atoms: _18  and  _20
REMARK    8  A    between atoms: _20  and  _21
REMARK    9  A    between atoms: _20  and  _23
REMARK   10  A    between atoms: _23  and  _24
REMARK   11  A    between atoms: _27  and  _29
REMARK   12  A    between atoms: _29  and  _30
REMARK   13  A    between atoms: _29  and  _32
REMARK   14  A    between atoms: _32  and  _33
REMARK   15  A    between atoms: _36  and  _38
REMARK   16  A    between atoms: _38  and  _39
REMARK   17  A    between atoms: _38  and  _41
REMARK   18  A    between atoms: _41  and  _42
REMARK   19  A    between atoms: _45  and  _47
REMARK   20  A    between atoms: _47  and  _48
REMARK   21  A    between atoms: _47  and  _50
REMARK   22  A    between atoms: _50  and  _51
REMARK   23  A    between atoms: _54  and  _56
REMARK   24  A    between atoms: _56  and  _57
REMARK   25  A    between atoms: _59  and  _61
REMARK   26  A    between atoms: _61  and  _62
REMARK   27  A    between atoms: _65  and  _67
REMARK   28  A    between atoms: _67  and  _68
REMARK   29  A    between atoms: _67  and  _70
REMARK   30  A    between atoms: _70  and  _71
REMARK   31  A    between atoms: _74  and  _76
REMARK   32  A    between atoms: _76  and  _77
REMARK   33  A    between atoms: _76  and  _79
REMARK   34  A    between atoms: _79  and  _80
REMARK   35  A    between atoms: _85  and  _87
REMARK   36  A    between atoms: _87  and  _88
REMARK   37  A    between atoms: _87  and  _90
REMARK   38  A    between atoms: _90  and  _91
REMARK   39  A    between atoms: _94  and  _96
REMARK   40  A    between atoms: _96  and  _97
REMARK   41  A    between atoms: _96  and  _99
REMARK   42  A    between atoms: _102  and  _104
REMARK   43  A    between atoms: _104  and  _105
REMARK   44  A    between atoms: _104  and  _107
REMARK   45  A    between atoms: _107  and  _108
REMARK   46  A    between atoms: _111  and  _113
REMARK   47  A    between atoms: _113  and  _114
REMARK   48  A    between atoms: _113  and  _116
REMARK   49  A    between atoms: _117  and  _118
REMARK   50  A    between atoms: _118  and  _119
REMARK   51  A    between atoms: _119  and  _120
REMARK   52  A    between atoms: _124  and  _126
REMARK   53  A    between atoms: _126  and  _127
REMARK   54  A    between atoms: _126  and  _129
REMARK   55  A    between atoms: _129  and  _130
REMARK   56  A    between atoms: _130  and  _131
REMARK   57  A    between atoms: _133  and  _135
REMARK   58  A    between atoms: _135  and  _136
REMARK   59  A    between atoms: _135  and  _138
REMARK   60  A    between atoms: _138  and  _139
REMARK   61  A    between atoms: _142  and  _144
REMARK   62  A    between atoms: _144  and  _145
REMARK   63  A    between atoms: _147  and  _149
REMARK   64  A    between atoms: _149  and  _150
REMARK   65  A    between atoms: _152  and  _154
REMARK   66  A    between atoms: _154  and  _155
REMARK   67  A    between atoms: _154  and  _157
REMARK   68  A    between atoms: _157  and  _158
REMARK   69  A    between atoms: _161  and  _163
REMARK   70  A    between atoms: _163  and  _164
REMARK   71  A    between atoms: _166  and  _168
REMARK   72  A    between atoms: _168  and  _169
REMARK   73  A    between atoms: _171  and  _173
REMARK   74  A    between atoms: _173  and  _174
REMARK   75  A    between atoms: _173  and  _176
REMARK   76  A    between atoms: _176  and  _177
REMARK   77  A    between atoms: _183  and  _185
REMARK   78  A    between atoms: _185  and  _186
REMARK   79  A    between atoms: _185  and  _188
REMARK   80  A    between atoms: _188  and  _189
REMARK   81  A    between atoms: _192  and  _194
REMARK   82  A    between atoms: _194  and  _195
REMARK   83  A    between atoms: _194  and  _197
REMARK   84  A    between atoms: _200  and  _202
REMARK   85  A    between atoms: _202  and  _203
REMARK   86  A    between atoms: _202  and  _205
REMARK   87  A    between atoms: _205  and  _206
REMARK   88  A    between atoms: _209  and  _211
REMARK   89  A    between atoms: _211  and  _212
REMARK   90  A    between atoms: _211  and  _214
REMARK   91  A    between atoms: _214  and  _215
REMARK   92  A    between atoms: _219  and  _220
REMARK   93  A    between atoms: _225  and  _227
REMARK   94  A    between atoms: _227  and  _228
REMARK   95  A    between atoms: _227  and  _230
REMARK   96  A    between atoms: _233  and  _235
REMARK   97  A    between atoms: _235  and  _236
REMARK   98  A    between atoms: _235  and  _238
REMARK   99  A    between atoms: _238  and  _239
REMARK  100  A    between atoms: _244  and  _246
REMARK  101  A    between atoms: _246  and  _247
REMARK  102  A    between atoms: _246  and  _249
REMARK  103  A    between atoms: _249  and  _250
REMARK  104  A    between atoms: _253  and  _255
REMARK  105  A    between atoms: _255  and  _256
REMARK  106  A    between atoms: _255  and  _258
REMARK  107  A    between atoms: _258  and  _259
REMARK  108  A    between atoms: _262  and  _264
REMARK  109  A    between atoms: _264  and  _265
REMARK  110  A    between atoms: _267  and  _269
REMARK  111  A    between atoms: _269  and  _270
REMARK  112  A    between atoms: _269  and  _272
REMARK  113  A    between atoms: _272  and  _273
REMARK  114  A    between atoms: _273  and  _274
REMARK  115  A    between atoms: _274  and  _275
REMARK  116  A    between atoms: _284  and  _286
REMARK  117  A    between atoms: _286  and  _287
REMARK  118  A    between atoms: _286  and  _289
REMARK  119  A    between atoms: _289  and  _290
REMARK  120  A    between atoms: _295  and  _297
REMARK  121  A    between atoms: _297  and  _298
REMARK  122  A    between atoms: _297  and  _300
REMARK  123  A    between atoms: _300  and  _301
REMARK  124  A    between atoms: _301  and  _302
REMARK  125  A    between atoms: _302  and  _303
REMARK  126  A    between atoms: _312  and  _314
REMARK  127  A    between atoms: _314  and  _315
REMARK  128  A    between atoms: _314  and  _317
REMARK  129  A    between atoms: _317  and  _318
REMARK  130  A    between atoms: _321  and  _323
REMARK  131  A    between atoms: _323  and  _324
REMARK  132  A    between atoms: _323  and  _326
REMARK  133  A    between atoms: _326  and  _327
REMARK  134  A    between atoms: _330  and  _332
REMARK  135  A    between atoms: _332  and  _333
REMARK  136  A    between atoms: _332  and  _335
REMARK  137  A    between atoms: _335  and  _336
REMARK  138  A    between atoms: _339  and  _341
REMARK  139  A    between atoms: _341  and  _342
REMARK  140  A    between atoms: _341  and  _344
REMARK  141  A    between atoms: _344  and  _345
REMARK  142  A    between atoms: _348  and  _350
REMARK  143  A    between atoms: _350  and  _351
REMARK  144  A    between atoms: _353  and  _355
REMARK  145  A    between atoms: _355  and  _356
REMARK  146  A    between atoms: _359  and  _361
REMARK  147  A    between atoms: _361  and  _362
REMARK  148  A    between atoms: _361  and  _364
REMARK  149  A    between atoms: _364  and  _365
REMARK  150  A    between atoms: _368  and  _370
REMARK  151  A    between atoms: _370  and  _371
REMARK  152  A    between atoms: _370  and  _373
REMARK  153  A    between atoms: _373  and  _374
REMARK  154  A    between atoms: _379  and  _381
REMARK  155  A    between atoms: _381  and  _382
REMARK  156  A    between atoms: _381  and  _384
REMARK  157  A    between atoms: _384  and  _385
REMARK  158  A    between atoms: _388  and  _390
REMARK  159  A    between atoms: _390  and  _391
REMARK  160  A    between atoms: _390  and  _393
REMARK  161  A    between atoms: _396  and  _398
REMARK  162  A    between atoms: _398  and  _399
REMARK  163  A    between atoms: _398  and  _401
REMARK  164  A    between atoms: _401  and  _402
REMARK  165  A    between atoms: _402  and  _403
REMARK  166  A    between atoms: _403  and  _404
REMARK  167  A    between atoms: _404  and  _405
REMARK  168  A    between atoms: _409  and  _411
REMARK  169  A    between atoms: _411  and  _412
REMARK  170  A    between atoms: _411  and  _414
REMARK  171  A    between atoms: _414  and  _415
REMARK  172  A    between atoms: _415  and  _416
REMARK  173  A    between atoms: _418  and  _420
REMARK  174  A    between atoms: _420  and  _421
REMARK  175  A    between atoms: _420  and  _423
REMARK  176  A    between atoms: _423  and  _424
REMARK  177  A    between atoms: _427  and  _429
REMARK  178  A    between atoms: _429  and  _430
REMARK  179  A    between atoms: _432  and  _434
REMARK  180  A    between atoms: _434  and  _435
REMARK  181  A    between atoms: _437  and  _439
REMARK  182  A    between atoms: _439  and  _440
REMARK  183  A    between atoms: _439  and  _442
REMARK  184  A    between atoms: _442  and  _443
REMARK  185  A    between atoms: _446  and  _448
REMARK  186  A    between atoms: _448  and  _449
REMARK  187  A    between atoms: _451  and  _453
REMARK  188  A    between atoms: _453  and  _454
REMARK  189  A    between atoms: _456  and  _458
REMARK  190  A    between atoms: _458  and  _459
REMARK  191  A    between atoms: _458  and  _461
REMARK  192  A    between atoms: _461  and  _462
REMARK  193  A    between atoms: _468  and  _470
REMARK  194  A    between atoms: _470  and  _471
REMARK  195  A    between atoms: _470  and  _473
REMARK  196  A    between atoms: _473  and  _474
REMARK  197  A    between atoms: _477  and  _479
REMARK  198  A    between atoms: _479  and  _480
REMARK  199  A    between atoms: _479  and  _482
REMARK  200  A    between atoms: _485  and  _487
REMARK  201  A    between atoms: _487  and  _488
REMARK  202  A    between atoms: _487  and  _490
REMARK  203  A    between atoms: _490  and  _491
REMARK  204  A    between atoms: _494  and  _496
REMARK  205  A    between atoms: _496  and  _497
REMARK  206  A    between atoms: _496  and  _499
REMARK  207  A    between atoms: _499  and  _500
REMARK  208  A    between atoms: _504  and  _505
REMARK  209  A    between atoms: _510  and  _512
REMARK  210  A    between atoms: _512  and  _513
REMARK  211  A    between atoms: _512  and  _515
REMARK  212  A    between atoms: _518  and  _520
REMARK  213  A    between atoms: _520  and  _521
REMARK  214  A    between atoms: _520  and  _523
REMARK  215  A    between atoms: _523  and  _524
REMARK  216  A    between atoms: _529  and  _531
REMARK  217  A    between atoms: _531  and  _532
REMARK  218  A    between atoms: _531  and  _534
REMARK  219  A    between atoms: _534  and  _535
REMARK  220  A    between atoms: _538  and  _540
REMARK  221  A    between atoms: _540  and  _541
REMARK  222  A    between atoms: _540  and  _543
REMARK  223  A    between atoms: _543  and  _544
REMARK  224  A    between atoms: _547  and  _549
REMARK  225  A    between atoms: _549  and  _550
REMARK  226  A    between atoms: _552  and  _554
REMARK  227  A    between atoms: _554  and  _555
REMARK  228  A    between atoms: _554  and  _557
REMARK  229  A    between atoms: _557  and  _558
REMARK  230  A    between atoms: _558  and  _559
REMARK  231  A    between atoms: _559  and  _560
REMARK  232  A    between atoms: _569  and  _571
REMARK  233  A    between atoms: _571  and  _572
REMARK  234  A    between atoms: _571  and  _574
REMARK  235  A    between atoms: _574  and  _575
REMARK                            x       y       z     vdW  Elec       q    Type
REMARK                         _______ _______ _______ _____ _____    ______ ____
ROOT
ATOM      1  O   HOH     1       4.780  21.445  11.307  0.00  0.00    +0.000 OA
ENDROOT
TORSDOF 0
REMARK  Name = ../refined-set-2016/2f80/2f80_pocket.pdb
REMARK  235 active torsions:
REMARK  status: ('A' for Active; 'I' for Inactive)
REMARK    1  A    between atoms: _1  and  _3
REMARK    2  A    between atoms: _3  and  _4
REMARK    3  A    between atoms: _3  and  _6
REMARK    4  A    between atoms: _6  and  _7
REMARK    5  A    between atoms: _7  and  _8
REMARK    6  A    between atoms: _8  and  _9
REMARK    7  A    between atoms: _18  and  _20
REMARK    8  A    between atoms: _20  and  _21
REMARK    9  A    between atoms: _20  and  _23
REMARK   10  A    between atoms: _23  and  _24
REMARK   11  A    between atoms: _27  and  _29
REMARK   12  A    between atoms: _29  and  _30
REMARK   13  A    between atoms: _29  and  _32
REMARK   14  A    between atoms: _32  and  _33
REMARK   15  A    between atoms: _36  and  _38
REMARK   16  A    between atoms: _38  and  _39
REMARK   17  A    between atoms: _38  and  _41
REMARK   18  A    between atoms: _41  and  _42
REMARK   19  A    between atoms: _45  and  _47
REMARK   20  A    between atoms: _47  and  _48
REMARK   21  A    between atoms: _47  and  _50
REMARK   22  A    between atoms: _50  and  _51
REMARK   23  A    between atoms: _54  and  _56
REMARK   24  A    between atoms: _56  and  _57
REMARK   25  A    between atoms: _59  and  _61
REMARK   26  A    between atoms: _61  and  _62
REMARK   27  A    between atoms: _65  and  _67
REMARK   28  A    between atoms: _67  and  _68
REMARK   29  A    between atoms: _67  and  _70
REMARK   30  A    between atoms: _70  and  _71
REMARK   31  A    between atoms: _74  and  _76
REMARK   32  A    between atoms: _76  and  _77
REMARK   33  A    between atoms: _76  and  _79
REMARK   34  A    between atoms: _79  and  _80
REMARK   35  A    between atoms: _85  and  _87
REMARK   36  A    between atoms: _87  and  _88
REMARK   37  A    between atoms: _87  and  _90
REMARK   38  A    between atoms: _90  and  _91
REMARK   39  A    between atoms: _94  and  _96
REMARK   40  A    between atoms: _96  and  _97
REMARK   41  A    between atoms: _96  and  _99
REMARK   42  A    between atoms: _102  and  _104
REMARK   43  A    between atoms: _104  and  _105
REMARK   44  A    between atoms: _104  and  _107
REMARK   45  A    between atoms: _107  and  _108
REMARK   46  A    between atoms: _111  and  _113
REMARK   47  A    between atoms: _113  and  _114
REMARK   48  A    between atoms: _113  and  _116
REMARK   49  A    between atoms: _117  and  _118
REMARK   50  A    between atoms: _118  and  _119
REMARK   51  A    between atoms: _119  and  _120
REMARK   52  A    between atoms: _124  and  _126
REMARK   53  A    between atoms: _126  and  _127
REMARK   54  A    between atoms: _126  and  _129
REMARK   55  A    between atoms: _129  and  _130
REMARK   56  A    between atoms: _130  and  _131
REMARK   57  A    between atoms: _133  and  _135
REMARK   58  A    between atoms: _135  and  _136
REMARK   59  A    between atoms: _135  and  _138
REMARK   60  A    between atoms: _138  and  _139
REMARK   61  A    between atoms: _142  and  _144
REMARK   62  A    between atoms: _144  and  _145
REMARK   63  A    between atoms: _147  and  _149
REMARK   64  A    between atoms: _149  and  _150
REMARK   65  A    between atoms: _152  and  _154
REMARK   66  A    between atoms: _154  and  _155
REMARK   67  A    between atoms: _154  and  _157
REMARK   68  A    between atoms: _157  and  _158
REMARK   69  A    between atoms: _161  and  _163
REMARK   70  A    between atoms: _163  and  _164
REMARK   71  A    between atoms: _166  and  _168
REMARK   72  A    between atoms: _168  and  _169
REMARK   73  A    between atoms: _171  and  _173
REMARK   74  A    between atoms: _173  and  _174
REMARK   75  A    between atoms: _173  and  _176
REMARK   76  A    between atoms: _176  and  _177
REMARK   77  A    between atoms: _183  and  _185
REMARK   78  A    between atoms: _185  and  _186
REMARK   79  A    between atoms: _185  and  _188
REMARK   80  A    between atoms: _188  and  _189
REMARK   81  A    between atoms: _192  and  _194
REMARK   82  A    between atoms: _194  and  _195
REMARK   83  A    between atoms: _194  and  _197
REMARK   84  A    between atoms: _200  and  _202
REMARK   85  A    between atoms: _202  and  _203
REMARK   86  A    between atoms: _202  and  _205
REMARK   87  A    between atoms: _205  and  _206
REMARK   88  A    between atoms: _209  and  _211
REMARK   89  A    between atoms: _211  and  _212
REMARK   90  A    between atoms: _211  and  _214
REMARK   91  A    between atoms: _214  and  _215
REMARK   92  A    between atoms: _219  and  _220
REMARK   93  A    between atoms: _225  and  _227
REMARK   94  A    between atoms: _227  and  _228
REMARK   95  A    between atoms: _227  and  _230
REMARK   96  A    between atoms: _233  and  _235
REMARK   97  A    between atoms: _235  and  _236
REMARK   98  A    between atoms: _235  and  _238
REMARK   99  A    between atoms: _238  and  _239
REMARK  100  A    between atoms: _244  and  _246
REMARK  101  A    between atoms: _246  and  _247
REMARK  102  A    between atoms: _246  and  _249
REMARK  103  A    between atoms: _249  and  _250
REMARK  104  A    between atoms: _253  and  _255
REMARK  105  A    between atoms: _255  and  _256
REMARK  106  A    between atoms: _255  and  _258
REMARK  107  A    between atoms: _258  and  _259
REMARK  108  A    between atoms: _262  and  _264
REMARK  109  A    between atoms: _264  and  _265
REMARK  110  A    between atoms: _267  and  _269
REMARK  111  A    between atoms: _269  and  _270
REMARK  112  A    between atoms: _269  and  _272
REMARK  113  A    between atoms: _272  and  _273
REMARK  114  A    between atoms: _273  and  _274
REMARK  115  A    between atoms: _274  and  _275
REMARK  116  A    between atoms: _284  and  _286
REMARK  117  A    between atoms: _286  and  _287
REMARK  118  A    between atoms: _286  and  _289
REMARK  119  A    between atoms: _289  and  _290
REMARK  120  A    between atoms: _295  and  _297
REMARK  121  A    between atoms: _297  and  _298
REMARK  122  A    between atoms: _297  and  _300
REMARK  123  A    between atoms: _300  and  _301
REMARK  124  A    between atoms: _301  and  _302
REMARK  125  A    between atoms: _302  and  _303
REMARK  126  A    between atoms: _312  and  _314
REMARK  127  A    between atoms: _314  and  _315
REMARK  128  A    between atoms: _314  and  _317
REMARK  129  A    between atoms: _317  and  _318
REMARK  130  A    between atoms: _321  and  _323
REMARK  131  A    between atoms: _323  and  _324
REMARK  132  A    between atoms: _323  and  _326
REMARK  133  A    between atoms: _326  and  _327
REMARK  134  A    between atoms: _330  and  _332
REMARK  135  A    between atoms: _332  and  _333
REMARK  136  A    between atoms: _332  and  _335
REMARK  137  A    between atoms: _335  and  _336
REMARK  138  A    between atoms: _339  and  _341
REMARK  139  A    between atoms: _341  and  _342
REMARK  140  A    between atoms: _341  and  _344
REMARK  141  A    between atoms: _344  and  _345
REMARK  142  A    between atoms: _348  and  _350
REMARK  143  A    between atoms: _350  and  _351
REMARK  144  A    between atoms: _353  and  _355
REMARK  145  A    between atoms: _355  and  _356
REMARK  146  A    between atoms: _359  and  _361
REMARK  147  A    between atoms: _361  and  _362
REMARK  148  A    between atoms: _361  and  _364
REMARK  149  A    between atoms: _364  and  _365
REMARK  150  A    between atoms: _368  and  _370
REMARK  151  A    between atoms: _370  and  _371
REMARK  152  A    between atoms: _370  and  _373
REMARK  153  A    between atoms: _373  and  _374
REMARK  154  A    between atoms: _379  and  _381
REMARK  155  A    between atoms: _381  and  _382
REMARK  156  A    between atoms: _381  and  _384
REMARK  157  A    between atoms: _384  and  _385
REMARK  158  A    between atoms: _388  and  _390
REMARK  159  A    between atoms: _390  and  _391
REMARK  160  A    between atoms: _390  and  _393
REMARK  161  A    between atoms: _396  and  _398
REMARK  162  A    between atoms: _398  and  _399
REMARK  163  A    between atoms: _398  and  _401
REMARK  164  A    between atoms: _401  and  _402
REMARK  165  A    between atoms: _402  and  _403
REMARK  166  A    between atoms: _403  and  _404
REMARK  167  A    between atoms: _404  and  _405
REMARK  168  A    between atoms: _409  and  _411
REMARK  169  A    between atoms: _411  and  _412
REMARK  170  A    between atoms: _411  and  _414
REMARK  171  A    between atoms: _414  and  _415
REMARK  172  A    between atoms: _415  and  _416
REMARK  173  A    between atoms: _418  and  _420
REMARK  174  A    between atoms: _420  and  _421
REMARK  175  A    between atoms: _420  and  _423
REMARK  176  A    between atoms: _423  and  _424
REMARK  177  A    between atoms: _427  and  _429
REMARK  178  A    between atoms: _429  and  _430
REMARK  179  A    between atoms: _432  and  _434
REMARK  180  A    between atoms: _434  and  _435
REMARK  181  A    between atoms: _437  and  _439
REMARK  182  A    between atoms: _439  and  _440
REMARK  183  A    between atoms: _439  and  _442
REMARK  184  A    between atoms: _442  and  _443
REMARK  185  A    between atoms: _446  and  _448
REMARK  186  A    between atoms: _448  and  _449
REMARK  187  A    between atoms: _451  and  _453
REMARK  188  A    between atoms: _453  and  _454
REMARK  189  A    between atoms: _456  and  _458
REMARK  190  A    between atoms: _458  and  _459
REMARK  191  A    between atoms: _458  and  _461
REMARK  192  A    between atoms: _461  and  _462
REMARK  193  A    between atoms: _468  and  _470
REMARK  194  A    between atoms: _470  and  _471
REMARK  195  A    between atoms: _470  and  _473
REMARK  196  A    between atoms: _473  and  _474
REMARK  197  A    between atoms: _477  and  _479
REMARK  198  A    between atoms: _479  and  _480
REMARK  199  A    between atoms: _479  and  _482
REMARK  200  A    between atoms: _485  and  _487
REMARK  201  A    between atoms: _487  and  _488
REMARK  202  A    between atoms: _487  and  _490
REMARK  203  A    between atoms: _490  and  _491
REMARK  204  A    between atoms: _494  and  _496
REMARK  205  A    between atoms: _496  and  _497
REMARK  206  A    between atoms: _496  and  _499
REMARK  207  A    between atoms: _499  and  _500
REMARK  208  A    between atoms: _504  and  _505
REMARK  209  A    between atoms: _510  and  _512
REMARK  210  A    between atoms: _512  and  _513
REMARK  211  A    between atoms: _512  and  _515
REMARK  212  A    between atoms: _518  and  _520
REMARK  213  A    between atoms: _520  and  _521
REMARK  214  A    between atoms: _520  and  _523
REMARK  215  A    between atoms: _523  and  _524
REMARK  216  A    between atoms: _529  and  _531
REMARK  217  A    between atoms: _531  and  _532
REMARK  218  A    between atoms: _531  and  _534
REMARK  219  A    between atoms: _534  and  _535
REMARK  220  A    between atoms: _538  and  _540
REMARK  221  A    between atoms: _540  and  _541
REMARK  222  A    between atoms: _540  and  _543
REMARK  223  A    between atoms: _543  and  _544
REMARK  224  A    between atoms: _547  and  _549
REMARK  225  A    between atoms: _549  and  _550
REMARK  226  A    between atoms: _552  and  _554
REMARK  227  A    between atoms: _554  and  _555
REMARK  228  A    between atoms: _554  and  _557
REMARK  229  A    between atoms: _557  and  _558
REMARK  230  A    between atoms: _558  and  _559
REMARK  231  A    between atoms: _559  and  _560
REMARK  232  A    between atoms: _569  and  _571
REMARK  233  A    between atoms: _571  and  _572
REMARK  234  A    between atoms: _571  and  _574
REMARK  235  A    between atoms: _574  and  _575
REMARK                            x       y       z     vdW  Elec       q    Type
REMARK                         _______ _______ _______ _____ _____    ______ ____
ROOT
ATOM      1  O   HOH     1      25.759  24.031  18.472  0.00  0.00    +0.000 OA
ENDROOT
TORSDOF 0
REMARK  Name = ../refined-set-2016/2f80/2f80_pocket.pdb
REMARK  235 active torsions:
REMARK  status: ('A' for Active; 'I' for Inactive)
REMARK    1  A    between atoms: _1  and  _3
REMARK    2  A    between atoms: _3  and  _4
REMARK    3  A    between atoms: _3  and  _6
REMARK    4  A    between atoms: _6  and  _7
REMARK    5  A    between atoms: _7  and  _8
REMARK    6  A    between atoms: _8  and  _9
REMARK    7  A    between atoms: _18  and  _20
REMARK    8  A    between atoms: _20  and  _21
REMARK    9  A    between atoms: _20  and  _23
REMARK   10  A    between atoms: _23  and  _24
REMARK   11  A    between atoms: _27  and  _29
REMARK   12  A    between atoms: _29  and  _30
REMARK   13  A    between atoms: _29  and  _32
REMARK   14  A    between atoms: _32  and  _33
REMARK   15  A    between atoms: _36  and  _38
REMARK   16  A    between atoms: _38  and  _39
REMARK   17  A    between atoms: _38  and  _41
REMARK   18  A    between atoms: _41  and  _42
REMARK   19  A    between atoms: _45  and  _47
REMARK   20  A    between atoms: _47  and  _48
REMARK   21  A    between atoms: _47  and  _50
REMARK   22  A    between atoms: _50  and  _51
REMARK   23  A    between atoms: _54  and  _56
REMARK   24  A    between atoms: _56  and  _57
REMARK   25  A    between atoms: _59  and  _61
REMARK   26  A    between atoms: _61  and  _62
REMARK   27  A    between atoms: _65  and  _67
REMARK   28  A    between atoms: _67  and  _68
REMARK   29  A    between atoms: _67  and  _70
REMARK   30  A    between atoms: _70  and  _71
REMARK   31  A    between atoms: _74  and  _76
REMARK   32  A    between atoms: _76  and  _77
REMARK   33  A    between atoms: _76  and  _79
REMARK   34  A    between atoms: _79  and  _80
REMARK   35  A    between atoms: _85  and  _87
REMARK   36  A    between atoms: _87  and  _88
REMARK   37  A    between atoms: _87  and  _90
REMARK   38  A    between atoms: _90  and  _91
REMARK   39  A    between atoms: _94  and  _96
REMARK   40  A    between atoms: _96  and  _97
REMARK   41  A    between atoms: _96  and  _99
REMARK   42  A    between atoms: _102  and  _104
REMARK   43  A    between atoms: _104  and  _105
REMARK   44  A    between atoms: _104  and  _107
REMARK   45  A    between atoms: _107  and  _108
REMARK   46  A    between atoms: _111  and  _113
REMARK   47  A    between atoms: _113  and  _114
REMARK   48  A    between atoms: _113  and  _116
REMARK   49  A    between atoms: _117  and  _118
REMARK   50  A    between atoms: _118  and  _119
REMARK   51  A    between atoms: _119  and  _120
REMARK   52  A    between atoms: _124  and  _126
REMARK   53  A    between atoms: _126  and  _127
REMARK   54  A    between atoms: _126  and  _129
REMARK   55  A    between atoms: _129  and  _130
REMARK   56  A    between atoms: _130  and  _131
REMARK   57  A    between atoms: _133  and  _135
REMARK   58  A    between atoms: _135  and  _136
REMARK   59  A    between atoms: _135  and  _138
REMARK   60  A    between atoms: _138  and  _139
REMARK   61  A    between atoms: _142  and  _144
REMARK   62  A    between atoms: _144  and  _145
REMARK   63  A    between atoms: _147  and  _149
REMARK   64  A    between atoms: _149  and  _150
REMARK   65  A    between atoms: _152  and  _154
REMARK   66  A    between atoms: _154  and  _155
REMARK   67  A    between atoms: _154  and  _157
REMARK   68  A    between atoms: _157  and  _158
REMARK   69  A    between atoms: _161  and  _163
REMARK   70  A    between atoms: _163  and  _164
REMARK   71  A    between atoms: _166  and  _168
REMARK   72  A    between atoms: _168  and  _169
REMARK   73  A    between atoms: _171  and  _173
REMARK   74  A    between atoms: _173  and  _174
REMARK   75  A    between atoms: _173  and  _176
REMARK   76  A    between atoms: _176  and  _177
REMARK   77  A    between atoms: _183  and  _185
REMARK   78  A    between atoms: _185  and  _186
REMARK   79  A    between atoms: _185  and  _188
REMARK   80  A    between atoms: _188  and  _189
REMARK   81  A    between atoms: _192  and  _194
REMARK   82  A    between atoms: _194  and  _195
REMARK   83  A    between atoms: _194  and  _197
REMARK   84  A    between atoms: _200  and  _202
REMARK   85  A    between atoms: _202  and  _203
REMARK   86  A    between atoms: _202  and  _205
REMARK   87  A    between atoms: _205  and  _206
REMARK   88  A    between atoms: _209  and  _211
REMARK   89  A    between atoms: _211  and  _212
REMARK   90  A    between atoms: _211  and  _214
REMARK   91  A    between atoms: _214  and  _215
REMARK   92  A    between atoms: _219  and  _220
REMARK   93  A    between atoms: _225  and  _227
REMARK   94  A    between atoms: _227  and  _228
REMARK   95  A    between atoms: _227  and  _230
REMARK   96  A    between atoms: _233  and  _235
REMARK   97  A    between atoms: _235  and  _236
REMARK   98  A    between atoms: _235  and  _238
REMARK   99  A    between atoms: _238  and  _239
REMARK  100  A    between atoms: _244  and  _246
REMARK  101  A    between atoms: _246  and  _247
REMARK  102  A    between atoms: _246  and  _249
REMARK  103  A    between atoms: _249  and  _250
REMARK  104  A    between atoms: _253  and  _255
REMARK  105  A    between atoms: _255  and  _256
REMARK  106  A    between atoms: _255  and  _258
REMARK  107  A    between atoms: _258  and  _259
REMARK  108  A    between atoms: _262  and  _264
REMARK  109  A    between atoms: _264  and  _265
REMARK  110  A    between atoms: _267  and  _269
REMARK  111  A    between atoms: _269  and  _270
REMARK  112  A    between atoms: _269  and  _272
REMARK  113  A    between atoms: _272  and  _273
REMARK  114  A    between atoms: _273  and  _274
REMARK  115  A    between atoms: _274  and  _275
REMARK  116  A    between atoms: _284  and  _286
REMARK  117  A    between atoms: _286  and  _287
REMARK  118  A    between atoms: _286  and  _289
REMARK  119  A    between atoms: _289  and  _290
REMARK  120  A    between atoms: _295  and  _297
REMARK  121  A    between atoms: _297  and  _298
REMARK  122  A    between atoms: _297  and  _300
REMARK  123  A    between atoms: _300  and  _301
REMARK  124  A    between atoms: _301  and  _302
REMARK  125  A    between atoms: _302  and  _303
REMARK  126  A    between atoms: _312  and  _314
REMARK  127  A    between atoms: _314  and  _315
REMARK  128  A    between atoms: _314  and  _317
REMARK  129  A    between atoms: _317  and  _318
REMARK  130  A    between atoms: _321  and  _323
REMARK  131  A    between atoms: _323  and  _324
REMARK  132  A    between atoms: _323  and  _326
REMARK  133  A    between atoms: _326  and  _327
REMARK  134  A    between atoms: _330  and  _332
REMARK  135  A    between atoms: _332  and  _333
REMARK  136  A    between atoms: _332  and  _335
REMARK  137  A    between atoms: _335  and  _336
REMARK  138  A    between atoms: _339  and  _341
REMARK  139  A    between atoms: _341  and  _342
REMARK  140  A    between atoms: _341  and  _344
REMARK  141  A    between atoms: _344  and  _345
REMARK  142  A    between atoms: _348  and  _350
REMARK  143  A    between atoms: _350  and  _351
REMARK  144  A    between atoms: _353  and  _355
REMARK  145  A    between atoms: _355  and  _356
REMARK  146  A    between atoms: _359  and  _361
REMARK  147  A    between atoms: _361  and  _362
REMARK  148  A    between atoms: _361  and  _364
REMARK  149  A    between atoms: _364  and  _365
REMARK  150  A    between atoms: _368  and  _370
REMARK  151  A    between atoms: _370  and  _371
REMARK  152  A    between atoms: _370  and  _373
REMARK  153  A    between atoms: _373  and  _374
REMARK  154  A    between atoms: _379  and  _381
REMARK  155  A    between atoms: _381  and  _382
REMARK  156  A    between atoms: _381  and  _384
REMARK  157  A    between atoms: _384  and  _385
REMARK  158  A    between atoms: _388  and  _390
REMARK  159  A    between atoms: _390  and  _391
REMARK  160  A    between atoms: _390  and  _393
REMARK  161  A    between atoms: _396  and  _398
REMARK  162  A    between atoms: _398  and  _399
REMARK  163  A    between atoms: _398  and  _401
REMARK  164  A    between atoms: _401  and  _402
REMARK  165  A    between atoms: _402  and  _403
REMARK  166  A    between atoms: _403  and  _404
REMARK  167  A    between atoms: _404  and  _405
REMARK  168  A    between atoms: _409  and  _411
REMARK  169  A    between atoms: _411  and  _412
REMARK  170  A    between atoms: _411  and  _414
REMARK  171  A    between atoms: _414  and  _415
REMARK  172  A    between atoms: _415  and  _416
REMARK  173  A    between atoms: _418  and  _420
REMARK  174  A    between atoms: _420  and  _421
REMARK  175  A    between atoms: _420  and  _423
REMARK  176  A    between atoms: _423  and  _424
REMARK  177  A    between atoms: _427  and  _429
REMARK  178  A    between atoms: _429  and  _430
REMARK  179  A    between atoms: _432  and  _434
REMARK  180  A    between atoms: _434  and  _435
REMARK  181  A    between atoms: _437  and  _439
REMARK  182  A    between atoms: _439  and  _440
REMARK  183  A    between atoms: _439  and  _442
REMARK  184  A    between atoms: _442  and  _443
REMARK  185  A    between atoms: _446  and  _448
REMARK  186  A    between atoms: _448  and  _449
REMARK  187  A    between atoms: _451  and  _453
REMARK  188  A    between atoms: _453  and  _454
REMARK  189  A    between atoms: _456  and  _458
REMARK  190  A    between atoms: _458  and  _459
REMARK  191  A    between atoms: _458  and  _461
REMARK  192  A    between atoms: _461  and  _462
REMARK  193  A    between atoms: _468  and  _470
REMARK  194  A    between atoms: _470  and  _471
REMARK  195  A    between atoms: _470  and  _473
REMARK  196  A    between atoms: _473  and  _474
REMARK  197  A    between atoms: _477  and  _479
REMARK  198  A    between atoms: _479  and  _480
REMARK  199  A    between atoms: _479  and  _482
REMARK  200  A    between atoms: _485  and  _487
REMARK  201  A    between atoms: _487  and  _488
REMARK  202  A    between atoms: _487  and  _490
REMARK  203  A    between atoms: _490  and  _491
REMARK  204  A    between atoms: _494  and  _496
REMARK  205  A    between atoms: _496  and  _497
REMARK  206  A    between atoms: _496  and  _499
REMARK  207  A    between atoms: _499  and  _500
REMARK  208  A    between atoms: _504  and  _505
REMARK  209  A    between atoms: _510  and  _512
REMARK  210  A    between atoms: _512  and  _513
REMARK  211  A    between atoms: _512  and  _515
REMARK  212  A    between atoms: _518  and  _520
REMARK  213  A    between atoms: _520  and  _521
REMARK  214  A    between atoms: _520  and  _523
REMARK  215  A    between atoms: _523  and  _524
REMARK  216  A    between atoms: _529  and  _531
REMARK  217  A    between atoms: _531  and  _532
REMARK  218  A    between atoms: _531  and  _534
REMARK  219  A    between atoms: _534  and  _535
REMARK  220  A    between atoms: _538  and  _540
REMARK  221  A    between atoms: _540  and  _541
REMARK  222  A    between atoms: _540  and  _543
REMARK  223  A    between atoms: _543  and  _544
REMARK  224  A    between atoms: _547  and  _549
REMARK  225  A    between atoms: _549  and  _550
REMARK  226  A    between atoms: _552  and  _554
REMARK  227  A    between atoms: _554  and  _555
REMARK  228  A    between atoms: _554  and  _557
REMARK  229  A    between atoms: _557  and  _558
REMARK  230  A    between atoms: _558  and  _559
REMARK  231  A    between atoms: _559  and  _560
REMARK  232  A    between atoms: _569  and  _571
REMARK  233  A    between atoms: _571  and  _572
REMARK  234  A    between atoms: _571  and  _574
REMARK  235  A    between atoms: _574  and  _575
REMARK                            x       y       z     vdW  Elec       q    Type
REMARK                         _______ _______ _______ _____ _____    ______ ____
ROOT
ATOM      1  O   HOH     1       8.975  21.173   7.510  0.00  0.00    +0.000 OA
ENDROOT
TORSDOF 0
REMARK  Name = ../refined-set-2016/2f80/2f80_pocket.pdb
REMARK  235 active torsions:
REMARK  status: ('A' for Active; 'I' for Inactive)
REMARK    1  A    between atoms: _1  and  _3
REMARK    2  A    between atoms: _3  and  _4
REMARK    3  A    between atoms: _3  and  _6
REMARK    4  A    between atoms: _6  and  _7
REMARK    5  A    between atoms: _7  and  _8
REMARK    6  A    between atoms: _8  and  _9
REMARK    7  A    between atoms: _18  and  _20
REMARK    8  A    between atoms: _20  and  _21
REMARK    9  A    between atoms: _20  and  _23
REMARK   10  A    between atoms: _23  and  _24
REMARK   11  A    between atoms: _27  and  _29
REMARK   12  A    between atoms: _29  and  _30
REMARK   13  A    between atoms: _29  and  _32
REMARK   14  A    between atoms: _32  and  _33
REMARK   15  A    between atoms: _36  and  _38
REMARK   16  A    between atoms: _38  and  _39
REMARK   17  A    between atoms: _38  and  _41
REMARK   18  A    between atoms: _41  and  _42
REMARK   19  A    between atoms: _45  and  _47
REMARK   20  A    between atoms: _47  and  _48
REMARK   21  A    between atoms: _47  and  _50
REMARK   22  A    between atoms: _50  and  _51
REMARK   23  A    between atoms: _54  and  _56
REMARK   24  A    between atoms: _56  and  _57
REMARK   25  A    between atoms: _59  and  _61
REMARK   26  A    between atoms: _61  and  _62
REMARK   27  A    between atoms: _65  and  _67
REMARK   28  A    between atoms: _67  and  _68
REMARK   29  A    between atoms: _67  and  _70
REMARK   30  A    between atoms: _70  and  _71
REMARK   31  A    between atoms: _74  and  _76
REMARK   32  A    between atoms: _76  and  _77
REMARK   33  A    between atoms: _76  and  _79
REMARK   34  A    between atoms: _79  and  _80
REMARK   35  A    between atoms: _85  and  _87
REMARK   36  A    between atoms: _87  and  _88
REMARK   37  A    between atoms: _87  and  _90
REMARK   38  A    between atoms: _90  and  _91
REMARK   39  A    between atoms: _94  and  _96
REMARK   40  A    between atoms: _96  and  _97
REMARK   41  A    between atoms: _96  and  _99
REMARK   42  A    between atoms: _102  and  _104
REMARK   43  A    between atoms: _104  and  _105
REMARK   44  A    between atoms: _104  and  _107
REMARK   45  A    between atoms: _107  and  _108
REMARK   46  A    between atoms: _111  and  _113
REMARK   47  A    between atoms: _113  and  _114
REMARK   48  A    between atoms: _113  and  _116
REMARK   49  A    between atoms: _117  and  _118
REMARK   50  A    between atoms: _118  and  _119
REMARK   51  A    between atoms: _119  and  _120
REMARK   52  A    between atoms: _124  and  _126
REMARK   53  A    between atoms: _126  and  _127
REMARK   54  A    between atoms: _126  and  _129
REMARK   55  A    between atoms: _129  and  _130
REMARK   56  A    between atoms: _130  and  _131
REMARK   57  A    between atoms: _133  and  _135
REMARK   58  A    between atoms: _135  and  _136
REMARK   59  A    between atoms: _135  and  _138
REMARK   60  A    between atoms: _138  and  _139
REMARK   61  A    between atoms: _142  and  _144
REMARK   62  A    between atoms: _144  and  _145
REMARK   63  A    between atoms: _147  and  _149
REMARK   64  A    between atoms: _149  and  _150
REMARK   65  A    between atoms: _152  and  _154
REMARK   66  A    between atoms: _154  and  _155
REMARK   67  A    between atoms: _154  and  _157
REMARK   68  A    between atoms: _157  and  _158
REMARK   69  A    between atoms: _161  and  _163
REMARK   70  A    between atoms: _163  and  _164
REMARK   71  A    between atoms: _166  and  _168
REMARK   72  A    between atoms: _168  and  _169
REMARK   73  A    between atoms: _171  and  _173
REMARK   74  A    between atoms: _173  and  _174
REMARK   75  A    between atoms: _173  and  _176
REMARK   76  A    between atoms: _176  and  _177
REMARK   77  A    between atoms: _183  and  _185
REMARK   78  A    between atoms: _185  and  _186
REMARK   79  A    between atoms: _185  and  _188
REMARK   80  A    between atoms: _188  and  _189
REMARK   81  A    between atoms: _192  and  _194
REMARK   82  A    between atoms: _194  and  _195
REMARK   83  A    between atoms: _194  and  _197
REMARK   84  A    between atoms: _200  and  _202
REMARK   85  A    between atoms: _202  and  _203
REMARK   86  A    between atoms: _202  and  _205
REMARK   87  A    between atoms: _205  and  _206
REMARK   88  A    between atoms: _209  and  _211
REMARK   89  A    between atoms: _211  and  _212
REMARK   90  A    between atoms: _211  and  _214
REMARK   91  A    between atoms: _214  and  _215
REMARK   92  A    between atoms: _219  and  _220
REMARK   93  A    between atoms: _225  and  _227
REMARK   94  A    between atoms: _227  and  _228
REMARK   95  A    between atoms: _227  and  _230
REMARK   96  A    between atoms: _233  and  _235
REMARK   97  A    between atoms: _235  and  _236
REMARK   98  A    between atoms: _235  and  _238
REMARK   99  A    between atoms: _238  and  _239
REMARK  100  A    between atoms: _244  and  _246
REMARK  101  A    between atoms: _246  and  _247
REMARK  102  A    between atoms: _246  and  _249
REMARK  103  A    between atoms: _249  and  _250
REMARK  104  A    between atoms: _253  and  _255
REMARK  105  A    between atoms: _255  and  _256
REMARK  106  A    between atoms: _255  and  _258
REMARK  107  A    between atoms: _258  and  _259
REMARK  108  A    between atoms: _262  and  _264
REMARK  109  A    between atoms: _264  and  _265
REMARK  110  A    between atoms: _267  and  _269
REMARK  111  A    between atoms: _269  and  _270
REMARK  112  A    between atoms: _269  and  _272
REMARK  113  A    between atoms: _272  and  _273
REMARK  114  A    between atoms: _273  and  _274
REMARK  115  A    between atoms: _274  and  _275
REMARK  116  A    between atoms: _284  and  _286
REMARK  117  A    between atoms: _286  and  _287
REMARK  118  A    between atoms: _286  and  _289
REMARK  119  A    between atoms: _289  and  _290
REMARK  120  A    between atoms: _295  and  _297
REMARK  121  A    between atoms: _297  and  _298
REMARK  122  A    between atoms: _297  and  _300
REMARK  123  A    between atoms: _300  and  _301
REMARK  124  A    between atoms: _301  and  _302
REMARK  125  A    between atoms: _302  and  _303
REMARK  126  A    between atoms: _312  and  _314
REMARK  127  A    between atoms: _314  and  _315
REMARK  128  A    between atoms: _314  and  _317
REMARK  129  A    between atoms: _317  and  _318
REMARK  130  A    between atoms: _321  and  _323
REMARK  131  A    between atoms: _323  and  _324
REMARK  132  A    between atoms: _323  and  _326
REMARK  133  A    between atoms: _326  and  _327
REMARK  134  A    between atoms: _330  and  _332
REMARK  135  A    between atoms: _332  and  _333
REMARK  136  A    between atoms: _332  and  _335
REMARK  137  A    between atoms: _335  and  _336
REMARK  138  A    between atoms: _339  and  _341
REMARK  139  A    between atoms: _341  and  _342
REMARK  140  A    between atoms: _341  and  _344
REMARK  141  A    between atoms: _344  and  _345
REMARK  142  A    between atoms: _348  and  _350
REMARK  143  A    between atoms: _350  and  _351
REMARK  144  A    between atoms: _353  and  _355
REMARK  145  A    between atoms: _355  and  _356
REMARK  146  A    between atoms: _359  and  _361
REMARK  147  A    between atoms: _361  and  _362
REMARK  148  A    between atoms: _361  and  _364
REMARK  149  A    between atoms: _364  and  _365
REMARK  150  A    between atoms: _368  and  _370
REMARK  151  A    between atoms: _370  and  _371
REMARK  152  A    between atoms: _370  and  _373
REMARK  153  A    between atoms: _373  and  _374
REMARK  154  A    between atoms: _379  and  _381
REMARK  155  A    between atoms: _381  and  _382
REMARK  156  A    between atoms: _381  and  _384
REMARK  157  A    between atoms: _384  and  _385
REMARK  158  A    between atoms: _388  and  _390
REMARK  159  A    between atoms: _390  and  _391
REMARK  160  A    between atoms: _390  and  _393
REMARK  161  A    between atoms: _396  and  _398
REMARK  162  A    between atoms: _398  and  _399
REMARK  163  A    between atoms: _398  and  _401
REMARK  164  A    between atoms: _401  and  _402
REMARK  165  A    between atoms: _402  and  _403
REMARK  166  A    between atoms: _403  and  _404
REMARK  167  A    between atoms: _404  and  _405
REMARK  168  A    between atoms: _409  and  _411
REMARK  169  A    between atoms: _411  and  _412
REMARK  170  A    between atoms: _411  and  _414
REMARK  171  A    between atoms: _414  and  _415
REMARK  172  A    between atoms: _415  and  _416
REMARK  173  A    between atoms: _418  and  _420
REMARK  174  A    between atoms: _420  and  _421
REMARK  175  A    between atoms: _420  and  _423
REMARK  176  A    between atoms: _423  and  _424
REMARK  177  A    between atoms: _427  and  _429
REMARK  178  A    between atoms: _429  and  _430
REMARK  179  A    between atoms: _432  and  _434
REMARK  180  A    between atoms: _434  and  _435
REMARK  181  A    between atoms: _437  and  _439
REMARK  182  A    between atoms: _439  and  _440
REMARK  183  A    between atoms: _439  and  _442
REMARK  184  A    between atoms: _442  and  _443
REMARK  185  A    between atoms: _446  and  _448
REMARK  186  A    between atoms: _448  and  _449
REMARK  187  A    between atoms: _451  and  _453
REMARK  188  A    between atoms: _453  and  _454
REMARK  189  A    between atoms: _456  and  _458
REMARK  190  A    between atoms: _458  and  _459
REMARK  191  A    between atoms: _458  and  _461
REMARK  192  A    between atoms: _461  and  _462
REMARK  193  A    between atoms: _468  and  _470
REMARK  194  A    between atoms: _470  and  _471
REMARK  195  A    between atoms: _470  and  _473
REMARK  196  A    between atoms: _473  and  _474
REMARK  197  A    between atoms: _477  and  _479
REMARK  198  A    between atoms: _479  and  _480
REMARK  199  A    between atoms: _479  and  _482
REMARK  200  A    between atoms: _485  and  _487
REMARK  201  A    between atoms: _487  and  _488
REMARK  202  A    between atoms: _487  and  _490
REMARK  203  A    between atoms: _490  and  _491
REMARK  204  A    between atoms: _494  and  _496
REMARK  205  A    between atoms: _496  and  _497
REMARK  206  A    between atoms: _496  and  _499
REMARK  207  A    between atoms: _499  and  _500
REMARK  208  A    between atoms: _504  and  _505
REMARK  209  A    between atoms: _510  and  _512
REMARK  210  A    between atoms: _512  and  _513
REMARK  211  A    between atoms: _512  and  _515
REMARK  212  A    between atoms: _518  and  _520
REMARK  213  A    between atoms: _520  and  _521
REMARK  214  A    between atoms: _520  and  _523
REMARK  215  A    between atoms: _523  and  _524
REMARK  216  A    between atoms: _529  and  _531
REMARK  217  A    between atoms: _531  and  _532
REMARK  218  A    between atoms: _531  and  _534
REMARK  219  A    between atoms: _534  and  _535
REMARK  220  A    between atoms: _538  and  _540
REMARK  221  A    between atoms: _540  and  _541
REMARK  222  A    between atoms: _540  and  _543
REMARK  223  A    between atoms: _543  and  _544
REMARK  224  A    between atoms: _547  and  _549
REMARK  225  A    between atoms: _549  and  _550
REMARK  226  A    between atoms: _552  and  _554
REMARK  227  A    between atoms: _554  and  _555
REMARK  228  A    between atoms: _554  and  _557
REMARK  229  A    between atoms: _557  and  _558
REMARK  230  A    between atoms: _558  and  _559
REMARK  231  A    between atoms: _559  and  _560
REMARK  232  A    between atoms: _569  and  _571
REMARK  233  A    between atoms: _571  and  _572
REMARK  234  A    between atoms: _571  and  _574
REMARK  235  A    between atoms: _574  and  _575
REMARK                            x       y       z     vdW  Elec       q    Type
REMARK                         _______ _______ _______ _____ _____    ______ ____
ROOT
ATOM      1  O   HOH     1      25.107  30.385  17.204  0.00  0.00    +0.000 OA
ENDROOT
TORSDOF 0
REMARK  Name = ../refined-set-2016/2f80/2f80_pocket.pdb
REMARK  235 active torsions:
REMARK  status: ('A' for Active; 'I' for Inactive)
REMARK    1  A    between atoms: _1  and  _3
REMARK    2  A    between atoms: _3  and  _4
REMARK    3  A    between atoms: _3  and  _6
REMARK    4  A    between atoms: _6  and  _7
REMARK    5  A    between atoms: _7  and  _8
REMARK    6  A    between atoms: _8  and  _9
REMARK    7  A    between atoms: _18  and  _20
REMARK    8  A    between atoms: _20  and  _21
REMARK    9  A    between atoms: _20  and  _23
REMARK   10  A    between atoms: _23  and  _24
REMARK   11  A    between atoms: _27  and  _29
REMARK   12  A    between atoms: _29  and  _30
REMARK   13  A    between atoms: _29  and  _32
REMARK   14  A    between atoms: _32  and  _33
REMARK   15  A    between atoms: _36  and  _38
REMARK   16  A    between atoms: _38  and  _39
REMARK   17  A    between atoms: _38  and  _41
REMARK   18  A    between atoms: _41  and  _42
REMARK   19  A    between atoms: _45  and  _47
REMARK   20  A    between atoms: _47  and  _48
REMARK   21  A    between atoms: _47  and  _50
REMARK   22  A    between atoms: _50  and  _51
REMARK   23  A    between atoms: _54  and  _56
REMARK   24  A    between atoms: _56  and  _57
REMARK   25  A    between atoms: _59  and  _61
REMARK   26  A    between atoms: _61  and  _62
REMARK   27  A    between atoms: _65  and  _67
REMARK   28  A    between atoms: _67  and  _68
REMARK   29  A    between atoms: _67  and  _70
REMARK   30  A    between atoms: _70  and  _71
REMARK   31  A    between atoms: _74  and  _76
REMARK   32  A    between atoms: _76  and  _77
REMARK   33  A    between atoms: _76  and  _79
REMARK   34  A    between atoms: _79  and  _80
REMARK   35  A    between atoms: _85  and  _87
REMARK   36  A    between atoms: _87  and  _88
REMARK   37  A    between atoms: _87  and  _90
REMARK   38  A    between atoms: _90  and  _91
REMARK   39  A    between atoms: _94  and  _96
REMARK   40  A    between atoms: _96  and  _97
REMARK   41  A    between atoms: _96  and  _99
REMARK   42  A    between atoms: _102  and  _104
REMARK   43  A    between atoms: _104  and  _105
REMARK   44  A    between atoms: _104  and  _107
REMARK   45  A    between atoms: _107  and  _108
REMARK   46  A    between atoms: _111  and  _113
REMARK   47  A    between atoms: _113  and  _114
REMARK   48  A    between atoms: _113  and  _116
REMARK   49  A    between atoms: _117  and  _118
REMARK   50  A    between atoms: _118  and  _119
REMARK   51  A    between atoms: _119  and  _120
REMARK   52  A    between atoms: _124  and  _126
REMARK   53  A    between atoms: _126  and  _127
REMARK   54  A    between atoms: _126  and  _129
REMARK   55  A    between atoms: _129  and  _130
REMARK   56  A    between atoms: _130  and  _131
REMARK   57  A    between atoms: _133  and  _135
REMARK   58  A    between atoms: _135  and  _136
REMARK   59  A    between atoms: _135  and  _138
REMARK   60  A    between atoms: _138  and  _139
REMARK   61  A    between atoms: _142  and  _144
REMARK   62  A    between atoms: _144  and  _145
REMARK   63  A    between atoms: _147  and  _149
REMARK   64  A    between atoms: _149  and  _150
REMARK   65  A    between atoms: _152  and  _154
REMARK   66  A    between atoms: _154  and  _155
REMARK   67  A    between atoms: _154  and  _157
REMARK   68  A    between atoms: _157  and  _158
REMARK   69  A    between atoms: _161  and  _163
REMARK   70  A    between atoms: _163  and  _164
REMARK   71  A    between atoms: _166  and  _168
REMARK   72  A    between atoms: _168  and  _169
REMARK   73  A    between atoms: _171  and  _173
REMARK   74  A    between atoms: _173  and  _174
REMARK   75  A    between atoms: _173  and  _176
REMARK   76  A    between atoms: _176  and  _177
REMARK   77  A    between atoms: _183  and  _185
REMARK   78  A    between atoms: _185  and  _186
REMARK   79  A    between atoms: _185  and  _188
REMARK   80  A    between atoms: _188  and  _189
REMARK   81  A    between atoms: _192  and  _194
REMARK   82  A    between atoms: _194  and  _195
REMARK   83  A    between atoms: _194  and  _197
REMARK   84  A    between atoms: _200  and  _202
REMARK   85  A    between atoms: _202  and  _203
REMARK   86  A    between atoms: _202  and  _205
REMARK   87  A    between atoms: _205  and  _206
REMARK   88  A    between atoms: _209  and  _211
REMARK   89  A    between atoms: _211  and  _212
REMARK   90  A    between atoms: _211  and  _214
REMARK   91  A    between atoms: _214  and  _215
REMARK   92  A    between atoms: _219  and  _220
REMARK   93  A    between atoms: _225  and  _227
REMARK   94  A    between atoms: _227  and  _228
REMARK   95  A    between atoms: _227  and  _230
REMARK   96  A    between atoms: _233  and  _235
REMARK   97  A    between atoms: _235  and  _236
REMARK   98  A    between atoms: _235  and  _238
REMARK   99  A    between atoms: _238  and  _239
REMARK  100  A    between atoms: _244  and  _246
REMARK  101  A    between atoms: _246  and  _247
REMARK  102  A    between atoms: _246  and  _249
REMARK  103  A    between atoms: _249  and  _250
REMARK  104  A    between atoms: _253  and  _255
REMARK  105  A    between atoms: _255  and  _256
REMARK  106  A    between atoms: _255  and  _258
REMARK  107  A    between atoms: _258  and  _259
REMARK  108  A    between atoms: _262  and  _264
REMARK  109  A    between atoms: _264  and  _265
REMARK  110  A    between atoms: _267  and  _269
REMARK  111  A    between atoms: _269  and  _270
REMARK  112  A    between atoms: _269  and  _272
REMARK  113  A    between atoms: _272  and  _273
REMARK  114  A    between atoms: _273  and  _274
REMARK  115  A    between atoms: _274  and  _275
REMARK  116  A    between atoms: _284  and  _286
REMARK  117  A    between atoms: _286  and  _287
REMARK  118  A    between atoms: _286  and  _289
REMARK  119  A    between atoms: _289  and  _290
REMARK  120  A    between atoms: _295  and  _297
REMARK  121  A    between atoms: _297  and  _298
REMARK  122  A    between atoms: _297  and  _300
REMARK  123  A    between atoms: _300  and  _301
REMARK  124  A    between atoms: _301  and  _302
REMARK  125  A    between atoms: _302  and  _303
REMARK  126  A    between atoms: _312  and  _314
REMARK  127  A    between atoms: _314  and  _315
REMARK  128  A    between atoms: _314  and  _317
REMARK  129  A    between atoms: _317  and  _318
REMARK  130  A    between atoms: _321  and  _323
REMARK  131  A    between atoms: _323  and  _324
REMARK  132  A    between atoms: _323  and  _326
REMARK  133  A    between atoms: _326  and  _327
REMARK  134  A    between atoms: _330  and  _332
REMARK  135  A    between atoms: _332  and  _333
REMARK  136  A    between atoms: _332  and  _335
REMARK  137  A    between atoms: _335  and  _336
REMARK  138  A    between atoms: _339  and  _341
REMARK  139  A    between atoms: _341  and  _342
REMARK  140  A    between atoms: _341  and  _344
REMARK  141  A    between atoms: _344  and  _345
REMARK  142  A    between atoms: _348  and  _350
REMARK  143  A    between atoms: _350  and  _351
REMARK  144  A    between atoms: _353  and  _355
REMARK  145  A    between atoms: _355  and  _356
REMARK  146  A    between atoms: _359  and  _361
REMARK  147  A    between atoms: _361  and  _362
REMARK  148  A    between atoms: _361  and  _364
REMARK  149  A    between atoms: _364  and  _365
REMARK  150  A    between atoms: _368  and  _370
REMARK  151  A    between atoms: _370  and  _371
REMARK  152  A    between atoms: _370  and  _373
REMARK  153  A    between atoms: _373  and  _374
REMARK  154  A    between atoms: _379  and  _381
REMARK  155  A    between atoms: _381  and  _382
REMARK  156  A    between atoms: _381  and  _384
REMARK  157  A    between atoms: _384  and  _385
REMARK  158  A    between atoms: _388  and  _390
REMARK  159  A    between atoms: _390  and  _391
REMARK  160  A    between atoms: _390  and  _393
REMARK  161  A    between atoms: _396  and  _398
REMARK  162  A    between atoms: _398  and  _399
REMARK  163  A    between atoms: _398  and  _401
REMARK  164  A    between atoms: _401  and  _402
REMARK  165  A    between atoms: _402  and  _403
REMARK  166  A    between atoms: _403  and  _404
REMARK  167  A    between atoms: _404  and  _405
REMARK  168  A    between atoms: _409  and  _411
REMARK  169  A    between atoms: _411  and  _412
REMARK  170  A    between atoms: _411  and  _414
REMARK  171  A    between atoms: _414  and  _415
REMARK  172  A    between atoms: _415  and  _416
REMARK  173  A    between atoms: _418  and  _420
REMARK  174  A    between atoms: _420  and  _421
REMARK  175  A    between atoms: _420  and  _423
REMARK  176  A    between atoms: _423  and  _424
REMARK  177  A    between atoms: _427  and  _429
REMARK  178  A    between atoms: _429  and  _430
REMARK  179  A    between atoms: _432  and  _434
REMARK  180  A    between atoms: _434  and  _435
REMARK  181  A    between atoms: _437  and  _439
REMARK  182  A    between atoms: _439  and  _440
REMARK  183  A    between atoms: _439  and  _442
REMARK  184  A    between atoms: _442  and  _443
REMARK  185  A    between atoms: _446  and  _448
REMARK  186  A    between atoms: _448  and  _449
REMARK  187  A    between atoms: _451  and  _453
REMARK  188  A    between atoms: _453  and  _454
REMARK  189  A    between atoms: _456  and  _458
REMARK  190  A    between atoms: _458  and  _459
REMARK  191  A    between atoms: _458  and  _461
REMARK  192  A    between atoms: _461  and  _462
REMARK  193  A    between atoms: _468  and  _470
REMARK  194  A    between atoms: _470  and  _471
REMARK  195  A    between atoms: _470  and  _473
REMARK  196  A    between atoms: _473  and  _474
REMARK  197  A    between atoms: _477  and  _479
REMARK  198  A    between atoms: _479  and  _480
REMARK  199  A    between atoms: _479  and  _482
REMARK  200  A    between atoms: _485  and  _487
REMARK  201  A    between atoms: _487  and  _488
REMARK  202  A    between atoms: _487  and  _490
REMARK  203  A    between atoms: _490  and  _491
REMARK  204  A    between atoms: _494  and  _496
REMARK  205  A    between atoms: _496  and  _497
REMARK  206  A    between atoms: _496  and  _499
REMARK  207  A    between atoms: _499  and  _500
REMARK  208  A    between atoms: _504  and  _505
REMARK  209  A    between atoms: _510  and  _512
REMARK  210  A    between atoms: _512  and  _513
REMARK  211  A    between atoms: _512  and  _515
REMARK  212  A    between atoms: _518  and  _520
REMARK  213  A    between atoms: _520  and  _521
REMARK  214  A    between atoms: _520  and  _523
REMARK  215  A    between atoms: _523  and  _524
REMARK  216  A    between atoms: _529  and  _531
REMARK  217  A    between atoms: _531  and  _532
REMARK  218  A    between atoms: _531  and  _534
REMARK  219  A    between atoms: _534  and  _535
REMARK  220  A    between atoms: _538  and  _540
REMARK  221  A    between atoms: _540  and  _541
REMARK  222  A    between atoms: _540  and  _543
REMARK  223  A    between atoms: _543  and  _544
REMARK  224  A    between atoms: _547  and  _549
REMARK  225  A    between atoms: _549  and  _550
REMARK  226  A    between atoms: _552  and  _554
REMARK  227  A    between atoms: _554  and  _555
REMARK  228  A    between atoms: _554  and  _557
REMARK  229  A    between atoms: _557  and  _558
REMARK  230  A    between atoms: _558  and  _559
REMARK  231  A    between atoms: _559  and  _560
REMARK  232  A    between atoms: _569  and  _571
REMARK  233  A    between atoms: _571  and  _572
REMARK  234  A    between atoms: _571  and  _574
REMARK  235  A    between atoms: _574  and  _575
REMARK                            x       y       z     vdW  Elec       q    Type
REMARK                         _______ _______ _______ _____ _____    ______ ____
ROOT
ATOM      1  O   HOH     1       7.364  23.975  18.137  0.00  0.00    +0.000 OA
ENDROOT
TORSDOF 0
REMARK  Name = ../refined-set-2016/2f80/2f80_pocket.pdb
REMARK  235 active torsions:
REMARK  status: ('A' for Active; 'I' for Inactive)
REMARK    1  A    between atoms: _1  and  _3
REMARK    2  A    between atoms: _3  and  _4
REMARK    3  A    between atoms: _3  and  _6
REMARK    4  A    between atoms: _6  and  _7
REMARK    5  A    between atoms: _7  and  _8
REMARK    6  A    between atoms: _8  and  _9
REMARK    7  A    between atoms: _18  and  _20
REMARK    8  A    between atoms: _20  and  _21
REMARK    9  A    between atoms: _20  and  _23
REMARK   10  A    between atoms: _23  and  _24
REMARK   11  A    between atoms: _27  and  _29
REMARK   12  A    between atoms: _29  and  _30
REMARK   13  A    between atoms: _29  and  _32
REMARK   14  A    between atoms: _32  and  _33
REMARK   15  A    between atoms: _36  and  _38
REMARK   16  A    between atoms: _38  and  _39
REMARK   17  A    between atoms: _38  and  _41
REMARK   18  A    between atoms: _41  and  _42
REMARK   19  A    between atoms: _45  and  _47
REMARK   20  A    between atoms: _47  and  _48
REMARK   21  A    between atoms: _47  and  _50
REMARK   22  A    between atoms: _50  and  _51
REMARK   23  A    between atoms: _54  and  _56
REMARK   24  A    between atoms: _56  and  _57
REMARK   25  A    between atoms: _59  and  _61
REMARK   26  A    between atoms: _61  and  _62
REMARK   27  A    between atoms: _65  and  _67
REMARK   28  A    between atoms: _67  and  _68
REMARK   29  A    between atoms: _67  and  _70
REMARK   30  A    between atoms: _70  and  _71
REMARK   31  A    between atoms: _74  and  _76
REMARK   32  A    between atoms: _76  and  _77
REMARK   33  A    between atoms: _76  and  _79
REMARK   34  A    between atoms: _79  and  _80
REMARK   35  A    between atoms: _85  and  _87
REMARK   36  A    between atoms: _87  and  _88
REMARK   37  A    between atoms: _87  and  _90
REMARK   38  A    between atoms: _90  and  _91
REMARK   39  A    between atoms: _94  and  _96
REMARK   40  A    between atoms: _96  and  _97
REMARK   41  A    between atoms: _96  and  _99
REMARK   42  A    between atoms: _102  and  _104
REMARK   43  A    between atoms: _104  and  _105
REMARK   44  A    between atoms: _104  and  _107
REMARK   45  A    between atoms: _107  and  _108
REMARK   46  A    between atoms: _111  and  _113
REMARK   47  A    between atoms: _113  and  _114
REMARK   48  A    between atoms: _113  and  _116
REMARK   49  A    between atoms: _117  and  _118
REMARK   50  A    between atoms: _118  and  _119
REMARK   51  A    between atoms: _119  and  _120
REMARK   52  A    between atoms: _124  and  _126
REMARK   53  A    between atoms: _126  and  _127
REMARK   54  A    between atoms: _126  and  _129
REMARK   55  A    between atoms: _129  and  _130
REMARK   56  A    between atoms: _130  and  _131
REMARK   57  A    between atoms: _133  and  _135
REMARK   58  A    between atoms: _135  and  _136
REMARK   59  A    between atoms: _135  and  _138
REMARK   60  A    between atoms: _138  and  _139
REMARK   61  A    between atoms: _142  and  _144
REMARK   62  A    between atoms: _144  and  _145
REMARK   63  A    between atoms: _147  and  _149
REMARK   64  A    between atoms: _149  and  _150
REMARK   65  A    between atoms: _152  and  _154
REMARK   66  A    between atoms: _154  and  _155
REMARK   67  A    between atoms: _154  and  _157
REMARK   68  A    between atoms: _157  and  _158
REMARK   69  A    between atoms: _161  and  _163
REMARK   70  A    between atoms: _163  and  _164
REMARK   71  A    between atoms: _166  and  _168
REMARK   72  A    between atoms: _168  and  _169
REMARK   73  A    between atoms: _171  and  _173
REMARK   74  A    between atoms: _173  and  _174
REMARK   75  A    between atoms: _173  and  _176
REMARK   76  A    between atoms: _176  and  _177
REMARK   77  A    between atoms: _183  and  _185
REMARK   78  A    between atoms: _185  and  _186
REMARK   79  A    between atoms: _185  and  _188
REMARK   80  A    between atoms: _188  and  _189
REMARK   81  A    between atoms: _192  and  _194
REMARK   82  A    between atoms: _194  and  _195
REMARK   83  A    between atoms: _194  and  _197
REMARK   84  A    between atoms: _200  and  _202
REMARK   85  A    between atoms: _202  and  _203
REMARK   86  A    between atoms: _202  and  _205
REMARK   87  A    between atoms: _205  and  _206
REMARK   88  A    between atoms: _209  and  _211
REMARK   89  A    between atoms: _211  and  _212
REMARK   90  A    between atoms: _211  and  _214
REMARK   91  A    between atoms: _214  and  _215
REMARK   92  A    between atoms: _219  and  _220
REMARK   93  A    between atoms: _225  and  _227
REMARK   94  A    between atoms: _227  and  _228
REMARK   95  A    between atoms: _227  and  _230
REMARK   96  A    between atoms: _233  and  _235
REMARK   97  A    between atoms: _235  and  _236
REMARK   98  A    between atoms: _235  and  _238
REMARK   99  A    between atoms: _238  and  _239
REMARK  100  A    between atoms: _244  and  _246
REMARK  101  A    between atoms: _246  and  _247
REMARK  102  A    between atoms: _246  and  _249
REMARK  103  A    between atoms: _249  and  _250
REMARK  104  A    between atoms: _253  and  _255
REMARK  105  A    between atoms: _255  and  _256
REMARK  106  A    between atoms: _255  and  _258
REMARK  107  A    between atoms: _258  and  _259
REMARK  108  A    between atoms: _262  and  _264
REMARK  109  A    between atoms: _264  and  _265
REMARK  110  A    between atoms: _267  and  _269
REMARK  111  A    between atoms: _269  and  _270
REMARK  112  A    between atoms: _269  and  _272
REMARK  113  A    between atoms: _272  and  _273
REMARK  114  A    between atoms: _273  and  _274
REMARK  115  A    between atoms: _274  and  _275
REMARK  116  A    between atoms: _284  and  _286
REMARK  117  A    between atoms: _286  and  _287
REMARK  118  A    between atoms: _286  and  _289
REMARK  119  A    between atoms: _289  and  _290
REMARK  120  A    between atoms: _295  and  _297
REMARK  121  A    between atoms: _297  and  _298
REMARK  122  A    between atoms: _297  and  _300
REMARK  123  A    between atoms: _300  and  _301
REMARK  124  A    between atoms: _301  and  _302
REMARK  125  A    between atoms: _302  and  _303
REMARK  126  A    between atoms: _312  and  _314
REMARK  127  A    between atoms: _314  and  _315
REMARK  128  A    between atoms: _314  and  _317
REMARK  129  A    between atoms: _317  and  _318
REMARK  130  A    between atoms: _321  and  _323
REMARK  131  A    between atoms: _323  and  _324
REMARK  132  A    between atoms: _323  and  _326
REMARK  133  A    between atoms: _326  and  _327
REMARK  134  A    between atoms: _330  and  _332
REMARK  135  A    between atoms: _332  and  _333
REMARK  136  A    between atoms: _332  and  _335
REMARK  137  A    between atoms: _335  and  _336
REMARK  138  A    between atoms: _339  and  _341
REMARK  139  A    between atoms: _341  and  _342
REMARK  140  A    between atoms: _341  and  _344
REMARK  141  A    between atoms: _344  and  _345
REMARK  142  A    between atoms: _348  and  _350
REMARK  143  A    between atoms: _350  and  _351
REMARK  144  A    between atoms: _353  and  _355
REMARK  145  A    between atoms: _355  and  _356
REMARK  146  A    between atoms: _359  and  _361
REMARK  147  A    between atoms: _361  and  _362
REMARK  148  A    between atoms: _361  and  _364
REMARK  149  A    between atoms: _364  and  _365
REMARK  150  A    between atoms: _368  and  _370
REMARK  151  A    between atoms: _370  and  _371
REMARK  152  A    between atoms: _370  and  _373
REMARK  153  A    between atoms: _373  and  _374
REMARK  154  A    between atoms: _379  and  _381
REMARK  155  A    between atoms: _381  and  _382
REMARK  156  A    between atoms: _381  and  _384
REMARK  157  A    between atoms: _384  and  _385
REMARK  158  A    between atoms: _388  and  _390
REMARK  159  A    between atoms: _390  and  _391
REMARK  160  A    between atoms: _390  and  _393
REMARK  161  A    between atoms: _396  and  _398
REMARK  162  A    between atoms: _398  and  _399
REMARK  163  A    between atoms: _398  and  _401
REMARK  164  A    between atoms: _401  and  _402
REMARK  165  A    between atoms: _402  and  _403
REMARK  166  A    between atoms: _403  and  _404
REMARK  167  A    between atoms: _404  and  _405
REMARK  168  A    between atoms: _409  and  _411
REMARK  169  A    between atoms: _411  and  _412
REMARK  170  A    between atoms: _411  and  _414
REMARK  171  A    between atoms: _414  and  _415
REMARK  172  A    between atoms: _415  and  _416
REMARK  173  A    between atoms: _418  and  _420
REMARK  174  A    between atoms: _420  and  _421
REMARK  175  A    between atoms: _420  and  _423
REMARK  176  A    between atoms: _423  and  _424
REMARK  177  A    between atoms: _427  and  _429
REMARK  178  A    between atoms: _429  and  _430
REMARK  179  A    between atoms: _432  and  _434
REMARK  180  A    between atoms: _434  and  _435
REMARK  181  A    between atoms: _437  and  _439
REMARK  182  A    between atoms: _439  and  _440
REMARK  183  A    between atoms: _439  and  _442
REMARK  184  A    between atoms: _442  and  _443
REMARK  185  A    between atoms: _446  and  _448
REMARK  186  A    between atoms: _448  and  _449
REMARK  187  A    between atoms: _451  and  _453
REMARK  188  A    between atoms: _453  and  _454
REMARK  189  A    between atoms: _456  and  _458
REMARK  190  A    between atoms: _458  and  _459
REMARK  191  A    between atoms: _458  and  _461
REMARK  192  A    between atoms: _461  and  _462
REMARK  193  A    between atoms: _468  and  _470
REMARK  194  A    between atoms: _470  and  _471
REMARK  195  A    between atoms: _470  and  _473
REMARK  196  A    between atoms: _473  and  _474
REMARK  197  A    between atoms: _477  and  _479
REMARK  198  A    between atoms: _479  and  _480
REMARK  199  A    between atoms: _479  and  _482
REMARK  200  A    between atoms: _485  and  _487
REMARK  201  A    between atoms: _487  and  _488
REMARK  202  A    between atoms: _487  and  _490
REMARK  203  A    between atoms: _490  and  _491
REMARK  204  A    between atoms: _494  and  _496
REMARK  205  A    between atoms: _496  and  _497
REMARK  206  A    between atoms: _496  and  _499
REMARK  207  A    between atoms: _499  and  _500
REMARK  208  A    between atoms: _504  and  _505
REMARK  209  A    between atoms: _510  and  _512
REMARK  210  A    between atoms: _512  and  _513
REMARK  211  A    between atoms: _512  and  _515
REMARK  212  A    between atoms: _518  and  _520
REMARK  213  A    between atoms: _520  and  _521
REMARK  214  A    between atoms: _520  and  _523
REMARK  215  A    between atoms: _523  and  _524
REMARK  216  A    between atoms: _529  and  _531
REMARK  217  A    between atoms: _531  and  _532
REMARK  218  A    between atoms: _531  and  _534
REMARK  219  A    between atoms: _534  and  _535
REMARK  220  A    between atoms: _538  and  _540
REMARK  221  A    between atoms: _540  and  _541
REMARK  222  A    between atoms: _540  and  _543
REMARK  223  A    between atoms: _543  and  _544
REMARK  224  A    between atoms: _547  and  _549
REMARK  225  A    between atoms: _549  and  _550
REMARK  226  A    between atoms: _552  and  _554
REMARK  227  A    between atoms: _554  and  _555
REMARK  228  A    between atoms: _554  and  _557
REMARK  229  A    between atoms: _557  and  _558
REMARK  230  A    between atoms: _558  and  _559
REMARK  231  A    between atoms: _559  and  _560
REMARK  232  A    between atoms: _569  and  _571
REMARK  233  A    between atoms: _571  and  _572
REMARK  234  A    between atoms: _571  and  _574
REMARK  235  A    between atoms: _574  and  _575
REMARK                            x       y       z     vdW  Elec       q    Type
REMARK                         _______ _______ _______ _____ _____    ______ ____
ROOT
ATOM      1  O   HOH     1       8.766  22.078  16.528  0.00  0.00    +0.000 OA
ENDROOT
TORSDOF 0
REMARK  Name = ../refined-set-2016/2f80/2f80_pocket.pdb
REMARK  235 active torsions:
REMARK  status: ('A' for Active; 'I' for Inactive)
REMARK    1  A    between atoms: _1  and  _3
REMARK    2  A    between atoms: _3  and  _4
REMARK    3  A    between atoms: _3  and  _6
REMARK    4  A    between atoms: _6  and  _7
REMARK    5  A    between atoms: _7  and  _8
REMARK    6  A    between atoms: _8  and  _9
REMARK    7  A    between atoms: _18  and  _20
REMARK    8  A    between atoms: _20  and  _21
REMARK    9  A    between atoms: _20  and  _23
REMARK   10  A    between atoms: _23  and  _24
REMARK   11  A    between atoms: _27  and  _29
REMARK   12  A    between atoms: _29  and  _30
REMARK   13  A    between atoms: _29  and  _32
REMARK   14  A    between atoms: _32  and  _33
REMARK   15  A    between atoms: _36  and  _38
REMARK   16  A    between atoms: _38  and  _39
REMARK   17  A    between atoms: _38  and  _41
REMARK   18  A    between atoms: _41  and  _42
REMARK   19  A    between atoms: _45  and  _47
REMARK   20  A    between atoms: _47  and  _48
REMARK   21  A    between atoms: _47  and  _50
REMARK   22  A    between atoms: _50  and  _51
REMARK   23  A    between atoms: _54  and  _56
REMARK   24  A    between atoms: _56  and  _57
REMARK   25  A    between atoms: _59  and  _61
REMARK   26  A    between atoms: _61  and  _62
REMARK   27  A    between atoms: _65  and  _67
REMARK   28  A    between atoms: _67  and  _68
REMARK   29  A    between atoms: _67  and  _70
REMARK   30  A    between atoms: _70  and  _71
REMARK   31  A    between atoms: _74  and  _76
REMARK   32  A    between atoms: _76  and  _77
REMARK   33  A    between atoms: _76  and  _79
REMARK   34  A    between atoms: _79  and  _80
REMARK   35  A    between atoms: _85  and  _87
REMARK   36  A    between atoms: _87  and  _88
REMARK   37  A    between atoms: _87  and  _90
REMARK   38  A    between atoms: _90  and  _91
REMARK   39  A    between atoms: _94  and  _96
REMARK   40  A    between atoms: _96  and  _97
REMARK   41  A    between atoms: _96  and  _99
REMARK   42  A    between atoms: _102  and  _104
REMARK   43  A    between atoms: _104  and  _105
REMARK   44  A    between atoms: _104  and  _107
REMARK   45  A    between atoms: _107  and  _108
REMARK   46  A    between atoms: _111  and  _113
REMARK   47  A    between atoms: _113  and  _114
REMARK   48  A    between atoms: _113  and  _116
REMARK   49  A    between atoms: _117  and  _118
REMARK   50  A    between atoms: _118  and  _119
REMARK   51  A    between atoms: _119  and  _120
REMARK   52  A    between atoms: _124  and  _126
REMARK   53  A    between atoms: _126  and  _127
REMARK   54  A    between atoms: _126  and  _129
REMARK   55  A    between atoms: _129  and  _130
REMARK   56  A    between atoms: _130  and  _131
REMARK   57  A    between atoms: _133  and  _135
REMARK   58  A    between atoms: _135  and  _136
REMARK   59  A    between atoms: _135  and  _138
REMARK   60  A    between atoms: _138  and  _139
REMARK   61  A    between atoms: _142  and  _144
REMARK   62  A    between atoms: _144  and  _145
REMARK   63  A    between atoms: _147  and  _149
REMARK   64  A    between atoms: _149  and  _150
REMARK   65  A    between atoms: _152  and  _154
REMARK   66  A    between atoms: _154  and  _155
REMARK   67  A    between atoms: _154  and  _157
REMARK   68  A    between atoms: _157  and  _158
REMARK   69  A    between atoms: _161  and  _163
REMARK   70  A    between atoms: _163  and  _164
REMARK   71  A    between atoms: _166  and  _168
REMARK   72  A    between atoms: _168  and  _169
REMARK   73  A    between atoms: _171  and  _173
REMARK   74  A    between atoms: _173  and  _174
REMARK   75  A    between atoms: _173  and  _176
REMARK   76  A    between atoms: _176  and  _177
REMARK   77  A    between atoms: _183  and  _185
REMARK   78  A    between atoms: _185  and  _186
REMARK   79  A    between atoms: _185  and  _188
REMARK   80  A    between atoms: _188  and  _189
REMARK   81  A    between atoms: _192  and  _194
REMARK   82  A    between atoms: _194  and  _195
REMARK   83  A    between atoms: _194  and  _197
REMARK   84  A    between atoms: _200  and  _202
REMARK   85  A    between atoms: _202  and  _203
REMARK   86  A    between atoms: _202  and  _205
REMARK   87  A    between atoms: _205  and  _206
REMARK   88  A    between atoms: _209  and  _211
REMARK   89  A    between atoms: _211  and  _212
REMARK   90  A    between atoms: _211  and  _214
REMARK   91  A    between atoms: _214  and  _215
REMARK   92  A    between atoms: _219  and  _220
REMARK   93  A    between atoms: _225  and  _227
REMARK   94  A    between atoms: _227  and  _228
REMARK   95  A    between atoms: _227  and  _230
REMARK   96  A    between atoms: _233  and  _235
REMARK   97  A    between atoms: _235  and  _236
REMARK   98  A    between atoms: _235  and  _238
REMARK   99  A    between atoms: _238  and  _239
REMARK  100  A    between atoms: _244  and  _246
REMARK  101  A    between atoms: _246  and  _247
REMARK  102  A    between atoms: _246  and  _249
REMARK  103  A    between atoms: _249  and  _250
REMARK  104  A    between atoms: _253  and  _255
REMARK  105  A    between atoms: _255  and  _256
REMARK  106  A    between atoms: _255  and  _258
REMARK  107  A    between atoms: _258  and  _259
REMARK  108  A    between atoms: _262  and  _264
REMARK  109  A    between atoms: _264  and  _265
REMARK  110  A    between atoms: _267  and  _269
REMARK  111  A    between atoms: _269  and  _270
REMARK  112  A    between atoms: _269  and  _272
REMARK  113  A    between atoms: _272  and  _273
REMARK  114  A    between atoms: _273  and  _274
REMARK  115  A    between atoms: _274  and  _275
REMARK  116  A    between atoms: _284  and  _286
REMARK  117  A    between atoms: _286  and  _287
REMARK  118  A    between atoms: _286  and  _289
REMARK  119  A    between atoms: _289  and  _290
REMARK  120  A    between atoms: _295  and  _297
REMARK  121  A    between atoms: _297  and  _298
REMARK  122  A    between atoms: _297  and  _300
REMARK  123  A    between atoms: _300  and  _301
REMARK  124  A    between atoms: _301  and  _302
REMARK  125  A    between atoms: _302  and  _303
REMARK  126  A    between atoms: _312  and  _314
REMARK  127  A    between atoms: _314  and  _315
REMARK  128  A    between atoms: _314  and  _317
REMARK  129  A    between atoms: _317  and  _318
REMARK  130  A    between atoms: _321  and  _323
REMARK  131  A    between atoms: _323  and  _324
REMARK  132  A    between atoms: _323  and  _326
REMARK  133  A    between atoms: _326  and  _327
REMARK  134  A    between atoms: _330  and  _332
REMARK  135  A    between atoms: _332  and  _333
REMARK  136  A    between atoms: _332  and  _335
REMARK  137  A    between atoms: _335  and  _336
REMARK  138  A    between atoms: _339  and  _341
REMARK  139  A    between atoms: _341  and  _342
REMARK  140  A    between atoms: _341  and  _344
REMARK  141  A    between atoms: _344  and  _345
REMARK  142  A    between atoms: _348  and  _350
REMARK  143  A    between atoms: _350  and  _351
REMARK  144  A    between atoms: _353  and  _355
REMARK  145  A    between atoms: _355  and  _356
REMARK  146  A    between atoms: _359  and  _361
REMARK  147  A    between atoms: _361  and  _362
REMARK  148  A    between atoms: _361  and  _364
REMARK  149  A    between atoms: _364  and  _365
REMARK  150  A    between atoms: _368  and  _370
REMARK  151  A    between atoms: _370  and  _371
REMARK  152  A    between atoms: _370  and  _373
REMARK  153  A    between atoms: _373  and  _374
REMARK  154  A    between atoms: _379  and  _381
REMARK  155  A    between atoms: _381  and  _382
REMARK  156  A    between atoms: _381  and  _384
REMARK  157  A    between atoms: _384  and  _385
REMARK  158  A    between atoms: _388  and  _390
REMARK  159  A    between atoms: _390  and  _391
REMARK  160  A    between atoms: _390  and  _393
REMARK  161  A    between atoms: _396  and  _398
REMARK  162  A    between atoms: _398  and  _399
REMARK  163  A    between atoms: _398  and  _401
REMARK  164  A    between atoms: _401  and  _402
REMARK  165  A    between atoms: _402  and  _403
REMARK  166  A    between atoms: _403  and  _404
REMARK  167  A    between atoms: _404  and  _405
REMARK  168  A    between atoms: _409  and  _411
REMARK  169  A    between atoms: _411  and  _412
REMARK  170  A    between atoms: _411  and  _414
REMARK  171  A    between atoms: _414  and  _415
REMARK  172  A    between atoms: _415  and  _416
REMARK  173  A    between atoms: _418  and  _420
REMARK  174  A    between atoms: _420  and  _421
REMARK  175  A    between atoms: _420  and  _423
REMARK  176  A    between atoms: _423  and  _424
REMARK  177  A    between atoms: _427  and  _429
REMARK  178  A    between atoms: _429  and  _430
REMARK  179  A    between atoms: _432  and  _434
REMARK  180  A    between atoms: _434  and  _435
REMARK  181  A    between atoms: _437  and  _439
REMARK  182  A    between atoms: _439  and  _440
REMARK  183  A    between atoms: _439  and  _442
REMARK  184  A    between atoms: _442  and  _443
REMARK  185  A    between atoms: _446  and  _448
REMARK  186  A    between atoms: _448  and  _449
REMARK  187  A    between atoms: _451  and  _453
REMARK  188  A    between atoms: _453  and  _454
REMARK  189  A    between atoms: _456  and  _458
REMARK  190  A    between atoms: _458  and  _459
REMARK  191  A    between atoms: _458  and  _461
REMARK  192  A    between atoms: _461  and  _462
REMARK  193  A    between atoms: _468  and  _470
REMARK  194  A    between atoms: _470  and  _471
REMARK  195  A    between atoms: _470  and  _473
REMARK  196  A    between atoms: _473  and  _474
REMARK  197  A    between atoms: _477  and  _479
REMARK  198  A    between atoms: _479  and  _480
REMARK  199  A    between atoms: _479  and  _482
REMARK  200  A    between atoms: _485  and  _487
REMARK  201  A    between atoms: _487  and  _488
REMARK  202  A    between atoms: _487  and  _490
REMARK  203  A    between atoms: _490  and  _491
REMARK  204  A    between atoms: _494  and  _496
REMARK  205  A    between atoms: _496  and  _497
REMARK  206  A    between atoms: _496  and  _499
REMARK  207  A    between atoms: _499  and  _500
REMARK  208  A    between atoms: _504  and  _505
REMARK  209  A    between atoms: _510  and  _512
REMARK  210  A    between atoms: _512  and  _513
REMARK  211  A    between atoms: _512  and  _515
REMARK  212  A    between atoms: _518  and  _520
REMARK  213  A    between atoms: _520  and  _521
REMARK  214  A    between atoms: _520  and  _523
REMARK  215  A    between atoms: _523  and  _524
REMARK  216  A    between atoms: _529  and  _531
REMARK  217  A    between atoms: _531  and  _532
REMARK  218  A    between atoms: _531  and  _534
REMARK  219  A    between atoms: _534  and  _535
REMARK  220  A    between atoms: _538  and  _540
REMARK  221  A    between atoms: _540  and  _541
REMARK  222  A    between atoms: _540  and  _543
REMARK  223  A    between atoms: _543  and  _544
REMARK  224  A    between atoms: _547  and  _549
REMARK  225  A    between atoms: _549  and  _550
REMARK  226  A    between atoms: _552  and  _554
REMARK  227  A    between atoms: _554  and  _555
REMARK  228  A    between atoms: _554  and  _557
REMARK  229  A    between atoms: _557  and  _558
REMARK  230  A    between atoms: _558  and  _559
REMARK  231  A    between atoms: _559  and  _560
REMARK  232  A    between atoms: _569  and  _571
REMARK  233  A    between atoms: _571  and  _572
REMARK  234  A    between atoms: _571  and  _574
REMARK  235  A    between atoms: _574  and  _575
REMARK                            x       y       z     vdW  Elec       q    Type
REMARK                         _______ _______ _______ _____ _____    ______ ____
ROOT
ATOM      1  O   HOH     1       9.252  16.082  26.457  0.00  0.00    +0.000 OA
ENDROOT
TORSDOF 0
REMARK  Name = ../refined-set-2016/2f80/2f80_pocket.pdb
REMARK  235 active torsions:
REMARK  status: ('A' for Active; 'I' for Inactive)
REMARK    1  A    between atoms: _1  and  _3
REMARK    2  A    between atoms: _3  and  _4
REMARK    3  A    between atoms: _3  and  _6
REMARK    4  A    between atoms: _6  and  _7
REMARK    5  A    between atoms: _7  and  _8
REMARK    6  A    between atoms: _8  and  _9
REMARK    7  A    between atoms: _18  and  _20
REMARK    8  A    between atoms: _20  and  _21
REMARK    9  A    between atoms: _20  and  _23
REMARK   10  A    between atoms: _23  and  _24
REMARK   11  A    between atoms: _27  and  _29
REMARK   12  A    between atoms: _29  and  _30
REMARK   13  A    between atoms: _29  and  _32
REMARK   14  A    between atoms: _32  and  _33
REMARK   15  A    between atoms: _36  and  _38
REMARK   16  A    between atoms: _38  and  _39
REMARK   17  A    between atoms: _38  and  _41
REMARK   18  A    between atoms: _41  and  _42
REMARK   19  A    between atoms: _45  and  _47
REMARK   20  A    between atoms: _47  and  _48
REMARK   21  A    between atoms: _47  and  _50
REMARK   22  A    between atoms: _50  and  _51
REMARK   23  A    between atoms: _54  and  _56
REMARK   24  A    between atoms: _56  and  _57
REMARK   25  A    between atoms: _59  and  _61
REMARK   26  A    between atoms: _61  and  _62
REMARK   27  A    between atoms: _65  and  _67
REMARK   28  A    between atoms: _67  and  _68
REMARK   29  A    between atoms: _67  and  _70
REMARK   30  A    between atoms: _70  and  _71
REMARK   31  A    between atoms: _74  and  _76
REMARK   32  A    between atoms: _76  and  _77
REMARK   33  A    between atoms: _76  and  _79
REMARK   34  A    between atoms: _79  and  _80
REMARK   35  A    between atoms: _85  and  _87
REMARK   36  A    between atoms: _87  and  _88
REMARK   37  A    between atoms: _87  and  _90
REMARK   38  A    between atoms: _90  and  _91
REMARK   39  A    between atoms: _94  and  _96
REMARK   40  A    between atoms: _96  and  _97
REMARK   41  A    between atoms: _96  and  _99
REMARK   42  A    between atoms: _102  and  _104
REMARK   43  A    between atoms: _104  and  _105
REMARK   44  A    between atoms: _104  and  _107
REMARK   45  A    between atoms: _107  and  _108
REMARK   46  A    between atoms: _111  and  _113
REMARK   47  A    between atoms: _113  and  _114
REMARK   48  A    between atoms: _113  and  _116
REMARK   49  A    between atoms: _117  and  _118
REMARK   50  A    between atoms: _118  and  _119
REMARK   51  A    between atoms: _119  and  _120
REMARK   52  A    between atoms: _124  and  _126
REMARK   53  A    between atoms: _126  and  _127
REMARK   54  A    between atoms: _126  and  _129
REMARK   55  A    between atoms: _129  and  _130
REMARK   56  A    between atoms: _130  and  _131
REMARK   57  A    between atoms: _133  and  _135
REMARK   58  A    between atoms: _135  and  _136
REMARK   59  A    between atoms: _135  and  _138
REMARK   60  A    between atoms: _138  and  _139
REMARK   61  A    between atoms: _142  and  _144
REMARK   62  A    between atoms: _144  and  _145
REMARK   63  A    between atoms: _147  and  _149
REMARK   64  A    between atoms: _149  and  _150
REMARK   65  A    between atoms: _152  and  _154
REMARK   66  A    between atoms: _154  and  _155
REMARK   67  A    between atoms: _154  and  _157
REMARK   68  A    between atoms: _157  and  _158
REMARK   69  A    between atoms: _161  and  _163
REMARK   70  A    between atoms: _163  and  _164
REMARK   71  A    between atoms: _166  and  _168
REMARK   72  A    between atoms: _168  and  _169
REMARK   73  A    between atoms: _171  and  _173
REMARK   74  A    between atoms: _173  and  _174
REMARK   75  A    between atoms: _173  and  _176
REMARK   76  A    between atoms: _176  and  _177
REMARK   77  A    between atoms: _183  and  _185
REMARK   78  A    between atoms: _185  and  _186
REMARK   79  A    between atoms: _185  and  _188
REMARK   80  A    between atoms: _188  and  _189
REMARK   81  A    between atoms: _192  and  _194
REMARK   82  A    between atoms: _194  and  _195
REMARK   83  A    between atoms: _194  and  _197
REMARK   84  A    between atoms: _200  and  _202
REMARK   85  A    between atoms: _202  and  _203
REMARK   86  A    between atoms: _202  and  _205
REMARK   87  A    between atoms: _205  and  _206
REMARK   88  A    between atoms: _209  and  _211
REMARK   89  A    between atoms: _211  and  _212
REMARK   90  A    between atoms: _211  and  _214
REMARK   91  A    between atoms: _214  and  _215
REMARK   92  A    between atoms: _219  and  _220
REMARK   93  A    between atoms: _225  and  _227
REMARK   94  A    between atoms: _227  and  _228
REMARK   95  A    between atoms: _227  and  _230
REMARK   96  A    between atoms: _233  and  _235
REMARK   97  A    between atoms: _235  and  _236
REMARK   98  A    between atoms: _235  and  _238
REMARK   99  A    between atoms: _238  and  _239
REMARK  100  A    between atoms: _244  and  _246
REMARK  101  A    between atoms: _246  and  _247
REMARK  102  A    between atoms: _246  and  _249
REMARK  103  A    between atoms: _249  and  _250
REMARK  104  A    between atoms: _253  and  _255
REMARK  105  A    between atoms: _255  and  _256
REMARK  106  A    between atoms: _255  and  _258
REMARK  107  A    between atoms: _258  and  _259
REMARK  108  A    between atoms: _262  and  _264
REMARK  109  A    between atoms: _264  and  _265
REMARK  110  A    between atoms: _267  and  _269
REMARK  111  A    between atoms: _269  and  _270
REMARK  112  A    between atoms: _269  and  _272
REMARK  113  A    between atoms: _272  and  _273
REMARK  114  A    between atoms: _273  and  _274
REMARK  115  A    between atoms: _274  and  _275
REMARK  116  A    between atoms: _284  and  _286
REMARK  117  A    between atoms: _286  and  _287
REMARK  118  A    between atoms: _286  and  _289
REMARK  119  A    between atoms: _289  and  _290
REMARK  120  A    between atoms: _295  and  _297
REMARK  121  A    between atoms: _297  and  _298
REMARK  122  A    between atoms: _297  and  _300
REMARK  123  A    between atoms: _300  and  _301
REMARK  124  A    between atoms: _301  and  _302
REMARK  125  A    between atoms: _302  and  _303
REMARK  126  A    between atoms: _312  and  _314
REMARK  127  A    between atoms: _314  and  _315
REMARK  128  A    between atoms: _314  and  _317
REMARK  129  A    between atoms: _317  and  _318
REMARK  130  A    between atoms: _321  and  _323
REMARK  131  A    between atoms: _323  and  _324
REMARK  132  A    between atoms: _323  and  _326
REMARK  133  A    between atoms: _326  and  _327
REMARK  134  A    between atoms: _330  and  _332
REMARK  135  A    between atoms: _332  and  _333
REMARK  136  A    between atoms: _332  and  _335
REMARK  137  A    between atoms: _335  and  _336
REMARK  138  A    between atoms: _339  and  _341
REMARK  139  A    between atoms: _341  and  _342
REMARK  140  A    between atoms: _341  and  _344
REMARK  141  A    between atoms: _344  and  _345
REMARK  142  A    between atoms: _348  and  _350
REMARK  143  A    between atoms: _350  and  _351
REMARK  144  A    between atoms: _353  and  _355
REMARK  145  A    between atoms: _355  and  _356
REMARK  146  A    between atoms: _359  and  _361
REMARK  147  A    between atoms: _361  and  _362
REMARK  148  A    between atoms: _361  and  _364
REMARK  149  A    between atoms: _364  and  _365
REMARK  150  A    between atoms: _368  and  _370
REMARK  151  A    between atoms: _370  and  _371
REMARK  152  A    between atoms: _370  and  _373
REMARK  153  A    between atoms: _373  and  _374
REMARK  154  A    between atoms: _379  and  _381
REMARK  155  A    between atoms: _381  and  _382
REMARK  156  A    between atoms: _381  and  _384
REMARK  157  A    between atoms: _384  and  _385
REMARK  158  A    between atoms: _388  and  _390
REMARK  159  A    between atoms: _390  and  _391
REMARK  160  A    between atoms: _390  and  _393
REMARK  161  A    between atoms: _396  and  _398
REMARK  162  A    between atoms: _398  and  _399
REMARK  163  A    between atoms: _398  and  _401
REMARK  164  A    between atoms: _401  and  _402
REMARK  165  A    between atoms: _402  and  _403
REMARK  166  A    between atoms: _403  and  _404
REMARK  167  A    between atoms: _404  and  _405
REMARK  168  A    between atoms: _409  and  _411
REMARK  169  A    between atoms: _411  and  _412
REMARK  170  A    between atoms: _411  and  _414
REMARK  171  A    between atoms: _414  and  _415
REMARK  172  A    between atoms: _415  and  _416
REMARK  173  A    between atoms: _418  and  _420
REMARK  174  A    between atoms: _420  and  _421
REMARK  175  A    between atoms: _420  and  _423
REMARK  176  A    between atoms: _423  and  _424
REMARK  177  A    between atoms: _427  and  _429
REMARK  178  A    between atoms: _429  and  _430
REMARK  179  A    between atoms: _432  and  _434
REMARK  180  A    between atoms: _434  and  _435
REMARK  181  A    between atoms: _437  and  _439
REMARK  182  A    between atoms: _439  and  _440
REMARK  183  A    between atoms: _439  and  _442
REMARK  184  A    between atoms: _442  and  _443
REMARK  185  A    between atoms: _446  and  _448
REMARK  186  A    between atoms: _448  and  _449
REMARK  187  A    between atoms: _451  and  _453
REMARK  188  A    between atoms: _453  and  _454
REMARK  189  A    between atoms: _456  and  _458
REMARK  190  A    between atoms: _458  and  _459
REMARK  191  A    between atoms: _458  and  _461
REMARK  192  A    between atoms: _461  and  _462
REMARK  193  A    between atoms: _468  and  _470
REMARK  194  A    between atoms: _470  and  _471
REMARK  195  A    between atoms: _470  and  _473
REMARK  196  A    between atoms: _473  and  _474
REMARK  197  A    between atoms: _477  and  _479
REMARK  198  A    between atoms: _479  and  _480
REMARK  199  A    between atoms: _479  and  _482
REMARK  200  A    between atoms: _485  and  _487
REMARK  201  A    between atoms: _487  and  _488
REMARK  202  A    between atoms: _487  and  _490
REMARK  203  A    between atoms: _490  and  _491
REMARK  204  A    between atoms: _494  and  _496
REMARK  205  A    between atoms: _496  and  _497
REMARK  206  A    between atoms: _496  and  _499
REMARK  207  A    between atoms: _499  and  _500
REMARK  208  A    between atoms: _504  and  _505
REMARK  209  A    between atoms: _510  and  _512
REMARK  210  A    between atoms: _512  and  _513
REMARK  211  A    between atoms: _512  and  _515
REMARK  212  A    between atoms: _518  and  _520
REMARK  213  A    between atoms: _520  and  _521
REMARK  214  A    between atoms: _520  and  _523
REMARK  215  A    between atoms: _523  and  _524
REMARK  216  A    between atoms: _529  and  _531
REMARK  217  A    between atoms: _531  and  _532
REMARK  218  A    between atoms: _531  and  _534
REMARK  219  A    between atoms: _534  and  _535
REMARK  220  A    between atoms: _538  and  _540
REMARK  221  A    between atoms: _540  and  _541
REMARK  222  A    between atoms: _540  and  _543
REMARK  223  A    between atoms: _543  and  _544
REMARK  224  A    between atoms: _547  and  _549
REMARK  225  A    between atoms: _549  and  _550
REMARK  226  A    between atoms: _552  and  _554
REMARK  227  A    between atoms: _554  and  _555
REMARK  228  A    between atoms: _554  and  _557
REMARK  229  A    between atoms: _557  and  _558
REMARK  230  A    between atoms: _558  and  _559
REMARK  231  A    between atoms: _559  and  _560
REMARK  232  A    between atoms: _569  and  _571
REMARK  233  A    between atoms: _571  and  _572
REMARK  234  A    between atoms: _571  and  _574
REMARK  235  A    between atoms: _574  and  _575
REMARK                            x       y       z     vdW  Elec       q    Type
REMARK                         _______ _______ _______ _____ _____    ______ ____
ROOT
ATOM      1  O   HOH     1      15.782  15.674  11.625  0.00  0.00    +0.000 OA
ENDROOT
TORSDOF 0
REMARK  Name = ../refined-set-2016/2f80/2f80_pocket.pdb
REMARK  235 active torsions:
REMARK  status: ('A' for Active; 'I' for Inactive)
REMARK    1  A    between atoms: _1  and  _3
REMARK    2  A    between atoms: _3  and  _4
REMARK    3  A    between atoms: _3  and  _6
REMARK    4  A    between atoms: _6  and  _7
REMARK    5  A    between atoms: _7  and  _8
REMARK    6  A    between atoms: _8  and  _9
REMARK    7  A    between atoms: _18  and  _20
REMARK    8  A    between atoms: _20  and  _21
REMARK    9  A    between atoms: _20  and  _23
REMARK   10  A    between atoms: _23  and  _24
REMARK   11  A    between atoms: _27  and  _29
REMARK   12  A    between atoms: _29  and  _30
REMARK   13  A    between atoms: _29  and  _32
REMARK   14  A    between atoms: _32  and  _33
REMARK   15  A    between atoms: _36  and  _38
REMARK   16  A    between atoms: _38  and  _39
REMARK   17  A    between atoms: _38  and  _41
REMARK   18  A    between atoms: _41  and  _42
REMARK   19  A    between atoms: _45  and  _47
REMARK   20  A    between atoms: _47  and  _48
REMARK   21  A    between atoms: _47  and  _50
REMARK   22  A    between atoms: _50  and  _51
REMARK   23  A    between atoms: _54  and  _56
REMARK   24  A    between atoms: _56  and  _57
REMARK   25  A    between atoms: _59  and  _61
REMARK   26  A    between atoms: _61  and  _62
REMARK   27  A    between atoms: _65  and  _67
REMARK   28  A    between atoms: _67  and  _68
REMARK   29  A    between atoms: _67  and  _70
REMARK   30  A    between atoms: _70  and  _71
REMARK   31  A    between atoms: _74  and  _76
REMARK   32  A    between atoms: _76  and  _77
REMARK   33  A    between atoms: _76  and  _79
REMARK   34  A    between atoms: _79  and  _80
REMARK   35  A    between atoms: _85  and  _87
REMARK   36  A    between atoms: _87  and  _88
REMARK   37  A    between atoms: _87  and  _90
REMARK   38  A    between atoms: _90  and  _91
REMARK   39  A    between atoms: _94  and  _96
REMARK   40  A    between atoms: _96  and  _97
REMARK   41  A    between atoms: _96  and  _99
REMARK   42  A    between atoms: _102  and  _104
REMARK   43  A    between atoms: _104  and  _105
REMARK   44  A    between atoms: _104  and  _107
REMARK   45  A    between atoms: _107  and  _108
REMARK   46  A    between atoms: _111  and  _113
REMARK   47  A    between atoms: _113  and  _114
REMARK   48  A    between atoms: _113  and  _116
REMARK   49  A    between atoms: _117  and  _118
REMARK   50  A    between atoms: _118  and  _119
REMARK   51  A    between atoms: _119  and  _120
REMARK   52  A    between atoms: _124  and  _126
REMARK   53  A    between atoms: _126  and  _127
REMARK   54  A    between atoms: _126  and  _129
REMARK   55  A    between atoms: _129  and  _130
REMARK   56  A    between atoms: _130  and  _131
REMARK   57  A    between atoms: _133  and  _135
REMARK   58  A    between atoms: _135  and  _136
REMARK   59  A    between atoms: _135  and  _138
REMARK   60  A    between atoms: _138  and  _139
REMARK   61  A    between atoms: _142  and  _144
REMARK   62  A    between atoms: _144  and  _145
REMARK   63  A    between atoms: _147  and  _149
REMARK   64  A    between atoms: _149  and  _150
REMARK   65  A    between atoms: _152  and  _154
REMARK   66  A    between atoms: _154  and  _155
REMARK   67  A    between atoms: _154  and  _157
REMARK   68  A    between atoms: _157  and  _158
REMARK   69  A    between atoms: _161  and  _163
REMARK   70  A    between atoms: _163  and  _164
REMARK   71  A    between atoms: _166  and  _168
REMARK   72  A    between atoms: _168  and  _169
REMARK   73  A    between atoms: _171  and  _173
REMARK   74  A    between atoms: _173  and  _174
REMARK   75  A    between atoms: _173  and  _176
REMARK   76  A    between atoms: _176  and  _177
REMARK   77  A    between atoms: _183  and  _185
REMARK   78  A    between atoms: _185  and  _186
REMARK   79  A    between atoms: _185  and  _188
REMARK   80  A    between atoms: _188  and  _189
REMARK   81  A    between atoms: _192  and  _194
REMARK   82  A    between atoms: _194  and  _195
REMARK   83  A    between atoms: _194  and  _197
REMARK   84  A    between atoms: _200  and  _202
REMARK   85  A    between atoms: _202  and  _203
REMARK   86  A    between atoms: _202  and  _205
REMARK   87  A    between atoms: _205  and  _206
REMARK   88  A    between atoms: _209  and  _211
REMARK   89  A    between atoms: _211  and  _212
REMARK   90  A    between atoms: _211  and  _214
REMARK   91  A    between atoms: _214  and  _215
REMARK   92  A    between atoms: _219  and  _220
REMARK   93  A    between atoms: _225  and  _227
REMARK   94  A    between atoms: _227  and  _228
REMARK   95  A    between atoms: _227  and  _230
REMARK   96  A    between atoms: _233  and  _235
REMARK   97  A    between atoms: _235  and  _236
REMARK   98  A    between atoms: _235  and  _238
REMARK   99  A    between atoms: _238  and  _239
REMARK  100  A    between atoms: _244  and  _246
REMARK  101  A    between atoms: _246  and  _247
REMARK  102  A    between atoms: _246  and  _249
REMARK  103  A    between atoms: _249  and  _250
REMARK  104  A    between atoms: _253  and  _255
REMARK  105  A    between atoms: _255  and  _256
REMARK  106  A    between atoms: _255  and  _258
REMARK  107  A    between atoms: _258  and  _259
REMARK  108  A    between atoms: _262  and  _264
REMARK  109  A    between atoms: _264  and  _265
REMARK  110  A    between atoms: _267  and  _269
REMARK  111  A    between atoms: _269  and  _270
REMARK  112  A    between atoms: _269  and  _272
REMARK  113  A    between atoms: _272  and  _273
REMARK  114  A    between atoms: _273  and  _274
REMARK  115  A    between atoms: _274  and  _275
REMARK  116  A    between atoms: _284  and  _286
REMARK  117  A    between atoms: _286  and  _287
REMARK  118  A    between atoms: _286  and  _289
REMARK  119  A    between atoms: _289  and  _290
REMARK  120  A    between atoms: _295  and  _297
REMARK  121  A    between atoms: _297  and  _298
REMARK  122  A    between atoms: _297  and  _300
REMARK  123  A    between atoms: _300  and  _301
REMARK  124  A    between atoms: _301  and  _302
REMARK  125  A    between atoms: _302  and  _303
REMARK  126  A    between atoms: _312  and  _314
REMARK  127  A    between atoms: _314  and  _315
REMARK  128  A    between atoms: _314  and  _317
REMARK  129  A    between atoms: _317  and  _318
REMARK  130  A    between atoms: _321  and  _323
REMARK  131  A    between atoms: _323  and  _324
REMARK  132  A    between atoms: _323  and  _326
REMARK  133  A    between atoms: _326  and  _327
REMARK  134  A    between atoms: _330  and  _332
REMARK  135  A    between atoms: _332  and  _333
REMARK  136  A    between atoms: _332  and  _335
REMARK  137  A    between atoms: _335  and  _336
REMARK  138  A    between atoms: _339  and  _341
REMARK  139  A    between atoms: _341  and  _342
REMARK  140  A    between atoms: _341  and  _344
REMARK  141  A    between atoms: _344  and  _345
REMARK  142  A    between atoms: _348  and  _350
REMARK  143  A    between atoms: _350  and  _351
REMARK  144  A    between atoms: _353  and  _355
REMARK  145  A    between atoms: _355  and  _356
REMARK  146  A    between atoms: _359  and  _361
REMARK  147  A    between atoms: _361  and  _362
REMARK  148  A    between atoms: _361  and  _364
REMARK  149  A    between atoms: _364  and  _365
REMARK  150  A    between atoms: _368  and  _370
REMARK  151  A    between atoms: _370  and  _371
REMARK  152  A    between atoms: _370  and  _373
REMARK  153  A    between atoms: _373  and  _374
REMARK  154  A    between atoms: _379  and  _381
REMARK  155  A    between atoms: _381  and  _382
REMARK  156  A    between atoms: _381  and  _384
REMARK  157  A    between atoms: _384  and  _385
REMARK  158  A    between atoms: _388  and  _390
REMARK  159  A    between atoms: _390  and  _391
REMARK  160  A    between atoms: _390  and  _393
REMARK  161  A    between atoms: _396  and  _398
REMARK  162  A    between atoms: _398  and  _399
REMARK  163  A    between atoms: _398  and  _401
REMARK  164  A    between atoms: _401  and  _402
REMARK  165  A    between atoms: _402  and  _403
REMARK  166  A    between atoms: _403  and  _404
REMARK  167  A    between atoms: _404  and  _405
REMARK  168  A    between atoms: _409  and  _411
REMARK  169  A    between atoms: _411  and  _412
REMARK  170  A    between atoms: _411  and  _414
REMARK  171  A    between atoms: _414  and  _415
REMARK  172  A    between atoms: _415  and  _416
REMARK  173  A    between atoms: _418  and  _420
REMARK  174  A    between atoms: _420  and  _421
REMARK  175  A    between atoms: _420  and  _423
REMARK  176  A    between atoms: _423  and  _424
REMARK  177  A    between atoms: _427  and  _429
REMARK  178  A    between atoms: _429  and  _430
REMARK  179  A    between atoms: _432  and  _434
REMARK  180  A    between atoms: _434  and  _435
REMARK  181  A    between atoms: _437  and  _439
REMARK  182  A    between atoms: _439  and  _440
REMARK  183  A    between atoms: _439  and  _442
REMARK  184  A    between atoms: _442  and  _443
REMARK  185  A    between atoms: _446  and  _448
REMARK  186  A    between atoms: _448  and  _449
REMARK  187  A    between atoms: _451  and  _453
REMARK  188  A    between atoms: _453  and  _454
REMARK  189  A    between atoms: _456  and  _458
REMARK  190  A    between atoms: _458  and  _459
REMARK  191  A    between atoms: _458  and  _461
REMARK  192  A    between atoms: _461  and  _462
REMARK  193  A    between atoms: _468  and  _470
REMARK  194  A    between atoms: _470  and  _471
REMARK  195  A    between atoms: _470  and  _473
REMARK  196  A    between atoms: _473  and  _474
REMARK  197  A    between atoms: _477  and  _479
REMARK  198  A    between atoms: _479  and  _480
REMARK  199  A    between atoms: _479  and  _482
REMARK  200  A    between atoms: _485  and  _487
REMARK  201  A    between atoms: _487  and  _488
REMARK  202  A    between atoms: _487  and  _490
REMARK  203  A    between atoms: _490  and  _491
REMARK  204  A    between atoms: _494  and  _496
REMARK  205  A    between atoms: _496  and  _497
REMARK  206  A    between atoms: _496  and  _499
REMARK  207  A    between atoms: _499  and  _500
REMARK  208  A    between atoms: _504  and  _505
REMARK  209  A    between atoms: _510  and  _512
REMARK  210  A    between atoms: _512  and  _513
REMARK  211  A    between atoms: _512  and  _515
REMARK  212  A    between atoms: _518  and  _520
REMARK  213  A    between atoms: _520  and  _521
REMARK  214  A    between atoms: _520  and  _523
REMARK  215  A    between atoms: _523  and  _524
REMARK  216  A    between atoms: _529  and  _531
REMARK  217  A    between atoms: _531  and  _532
REMARK  218  A    between atoms: _531  and  _534
REMARK  219  A    between atoms: _534  and  _535
REMARK  220  A    between atoms: _538  and  _540
REMARK  221  A    between atoms: _540  and  _541
REMARK  222  A    between atoms: _540  and  _543
REMARK  223  A    between atoms: _543  and  _544
REMARK  224  A    between atoms: _547  and  _549
REMARK  225  A    between atoms: _549  and  _550
REMARK  226  A    between atoms: _552  and  _554
REMARK  227  A    between atoms: _554  and  _555
REMARK  228  A    between atoms: _554  and  _557
REMARK  229  A    between atoms: _557  and  _558
REMARK  230  A    between atoms: _558  and  _559
REMARK  231  A    between atoms: _559  and  _560
REMARK  232  A    between atoms: _569  and  _571
REMARK  233  A    between atoms: _571  and  _572
REMARK  234  A    between atoms: _571  and  _574
REMARK  235  A    between atoms: _574  and  _575
REMARK                            x       y       z     vdW  Elec       q    Type
REMARK                         _______ _______ _______ _____ _____    ______ ____
ROOT
ATOM      1  O   HOH     1      10.993  15.055  16.470  0.00  0.00    +0.000 OA
ENDROOT
TORSDOF 0
REMARK  Name = ../refined-set-2016/2f80/2f80_pocket.pdb
REMARK  235 active torsions:
REMARK  status: ('A' for Active; 'I' for Inactive)
REMARK    1  A    between atoms: _1  and  _3
REMARK    2  A    between atoms: _3  and  _4
REMARK    3  A    between atoms: _3  and  _6
REMARK    4  A    between atoms: _6  and  _7
REMARK    5  A    between atoms: _7  and  _8
REMARK    6  A    between atoms: _8  and  _9
REMARK    7  A    between atoms: _18  and  _20
REMARK    8  A    between atoms: _20  and  _21
REMARK    9  A    between atoms: _20  and  _23
REMARK   10  A    between atoms: _23  and  _24
REMARK   11  A    between atoms: _27  and  _29
REMARK   12  A    between atoms: _29  and  _30
REMARK   13  A    between atoms: _29  and  _32
REMARK   14  A    between atoms: _32  and  _33
REMARK   15  A    between atoms: _36  and  _38
REMARK   16  A    between atoms: _38  and  _39
REMARK   17  A    between atoms: _38  and  _41
REMARK   18  A    between atoms: _41  and  _42
REMARK   19  A    between atoms: _45  and  _47
REMARK   20  A    between atoms: _47  and  _48
REMARK   21  A    between atoms: _47  and  _50
REMARK   22  A    between atoms: _50  and  _51
REMARK   23  A    between atoms: _54  and  _56
REMARK   24  A    between atoms: _56  and  _57
REMARK   25  A    between atoms: _59  and  _61
REMARK   26  A    between atoms: _61  and  _62
REMARK   27  A    between atoms: _65  and  _67
REMARK   28  A    between atoms: _67  and  _68
REMARK   29  A    between atoms: _67  and  _70
REMARK   30  A    between atoms: _70  and  _71
REMARK   31  A    between atoms: _74  and  _76
REMARK   32  A    between atoms: _76  and  _77
REMARK   33  A    between atoms: _76  and  _79
REMARK   34  A    between atoms: _79  and  _80
REMARK   35  A    between atoms: _85  and  _87
REMARK   36  A    between atoms: _87  and  _88
REMARK   37  A    between atoms: _87  and  _90
REMARK   38  A    between atoms: _90  and  _91
REMARK   39  A    between atoms: _94  and  _96
REMARK   40  A    between atoms: _96  and  _97
REMARK   41  A    between atoms: _96  and  _99
REMARK   42  A    between atoms: _102  and  _104
REMARK   43  A    between atoms: _104  and  _105
REMARK   44  A    between atoms: _104  and  _107
REMARK   45  A    between atoms: _107  and  _108
REMARK   46  A    between atoms: _111  and  _113
REMARK   47  A    between atoms: _113  and  _114
REMARK   48  A    between atoms: _113  and  _116
REMARK   49  A    between atoms: _117  and  _118
REMARK   50  A    between atoms: _118  and  _119
REMARK   51  A    between atoms: _119  and  _120
REMARK   52  A    between atoms: _124  and  _126
REMARK   53  A    between atoms: _126  and  _127
REMARK   54  A    between atoms: _126  and  _129
REMARK   55  A    between atoms: _129  and  _130
REMARK   56  A    between atoms: _130  and  _131
REMARK   57  A    between atoms: _133  and  _135
REMARK   58  A    between atoms: _135  and  _136
REMARK   59  A    between atoms: _135  and  _138
REMARK   60  A    between atoms: _138  and  _139
REMARK   61  A    between atoms: _142  and  _144
REMARK   62  A    between atoms: _144  and  _145
REMARK   63  A    between atoms: _147  and  _149
REMARK   64  A    between atoms: _149  and  _150
REMARK   65  A    between atoms: _152  and  _154
REMARK   66  A    between atoms: _154  and  _155
REMARK   67  A    between atoms: _154  and  _157
REMARK   68  A    between atoms: _157  and  _158
REMARK   69  A    between atoms: _161  and  _163
REMARK   70  A    between atoms: _163  and  _164
REMARK   71  A    between atoms: _166  and  _168
REMARK   72  A    between atoms: _168  and  _169
REMARK   73  A    between atoms: _171  and  _173
REMARK   74  A    between atoms: _173  and  _174
REMARK   75  A    between atoms: _173  and  _176
REMARK   76  A    between atoms: _176  and  _177
REMARK   77  A    between atoms: _183  and  _185
REMARK   78  A    between atoms: _185  and  _186
REMARK   79  A    between atoms: _185  and  _188
REMARK   80  A    between atoms: _188  and  _189
REMARK   81  A    between atoms: _192  and  _194
REMARK   82  A    between atoms: _194  and  _195
REMARK   83  A    between atoms: _194  and  _197
REMARK   84  A    between atoms: _200  and  _202
REMARK   85  A    between atoms: _202  and  _203
REMARK   86  A    between atoms: _202  and  _205
REMARK   87  A    between atoms: _205  and  _206
REMARK   88  A    between atoms: _209  and  _211
REMARK   89  A    between atoms: _211  and  _212
REMARK   90  A    between atoms: _211  and  _214
REMARK   91  A    between atoms: _214  and  _215
REMARK   92  A    between atoms: _219  and  _220
REMARK   93  A    between atoms: _225  and  _227
REMARK   94  A    between atoms: _227  and  _228
REMARK   95  A    between atoms: _227  and  _230
REMARK   96  A    between atoms: _233  and  _235
REMARK   97  A    between atoms: _235  and  _236
REMARK   98  A    between atoms: _235  and  _238
REMARK   99  A    between atoms: _238  and  _239
REMARK  100  A    between atoms: _244  and  _246
REMARK  101  A    between atoms: _246  and  _247
REMARK  102  A    between atoms: _246  and  _249
REMARK  103  A    between atoms: _249  and  _250
REMARK  104  A    between atoms: _253  and  _255
REMARK  105  A    between atoms: _255  and  _256
REMARK  106  A    between atoms: _255  and  _258
REMARK  107  A    between atoms: _258  and  _259
REMARK  108  A    between atoms: _262  and  _264
REMARK  109  A    between atoms: _264  and  _265
REMARK  110  A    between atoms: _267  and  _269
REMARK  111  A    between atoms: _269  and  _270
REMARK  112  A    between atoms: _269  and  _272
REMARK  113  A    between atoms: _272  and  _273
REMARK  114  A    between atoms: _273  and  _274
REMARK  115  A    between atoms: _274  and  _275
REMARK  116  A    between atoms: _284  and  _286
REMARK  117  A    between atoms: _286  and  _287
REMARK  118  A    between atoms: _286  and  _289
REMARK  119  A    between atoms: _289  and  _290
REMARK  120  A    between atoms: _295  and  _297
REMARK  121  A    between atoms: _297  and  _298
REMARK  122  A    between atoms: _297  and  _300
REMARK  123  A    between atoms: _300  and  _301
REMARK  124  A    between atoms: _301  and  _302
REMARK  125  A    between atoms: _302  and  _303
REMARK  126  A    between atoms: _312  and  _314
REMARK  127  A    between atoms: _314  and  _315
REMARK  128  A    between atoms: _314  and  _317
REMARK  129  A    between atoms: _317  and  _318
REMARK  130  A    between atoms: _321  and  _323
REMARK  131  A    between atoms: _323  and  _324
REMARK  132  A    between atoms: _323  and  _326
REMARK  133  A    between atoms: _326  and  _327
REMARK  134  A    between atoms: _330  and  _332
REMARK  135  A    between atoms: _332  and  _333
REMARK  136  A    between atoms: _332  and  _335
REMARK  137  A    between atoms: _335  and  _336
REMARK  138  A    between atoms: _339  and  _341
REMARK  139  A    between atoms: _341  and  _342
REMARK  140  A    between atoms: _341  and  _344
REMARK  141  A    between atoms: _344  and  _345
REMARK  142  A    between atoms: _348  and  _350
REMARK  143  A    between atoms: _350  and  _351
REMARK  144  A    between atoms: _353  and  _355
REMARK  145  A    between atoms: _355  and  _356
REMARK  146  A    between atoms: _359  and  _361
REMARK  147  A    between atoms: _361  and  _362
REMARK  148  A    between atoms: _361  and  _364
REMARK  149  A    between atoms: _364  and  _365
REMARK  150  A    between atoms: _368  and  _370
REMARK  151  A    between atoms: _370  and  _371
REMARK  152  A    between atoms: _370  and  _373
REMARK  153  A    between atoms: _373  and  _374
REMARK  154  A    between atoms: _379  and  _381
REMARK  155  A    between atoms: _381  and  _382
REMARK  156  A    between atoms: _381  and  _384
REMARK  157  A    between atoms: _384  and  _385
REMARK  158  A    between atoms: _388  and  _390
REMARK  159  A    between atoms: _390  and  _391
REMARK  160  A    between atoms: _390  and  _393
REMARK  161  A    between atoms: _396  and  _398
REMARK  162  A    between atoms: _398  and  _399
REMARK  163  A    between atoms: _398  and  _401
REMARK  164  A    between atoms: _401  and  _402
REMARK  165  A    between atoms: _402  and  _403
REMARK  166  A    between atoms: _403  and  _404
REMARK  167  A    between atoms: _404  and  _405
REMARK  168  A    between atoms: _409  and  _411
REMARK  169  A    between atoms: _411  and  _412
REMARK  170  A    between atoms: _411  and  _414
REMARK  171  A    between atoms: _414  and  _415
REMARK  172  A    between atoms: _415  and  _416
REMARK  173  A    between atoms: _418  and  _420
REMARK  174  A    between atoms: _420  and  _421
REMARK  175  A    between atoms: _420  and  _423
REMARK  176  A    between atoms: _423  and  _424
REMARK  177  A    between atoms: _427  and  _429
REMARK  178  A    between atoms: _429  and  _430
REMARK  179  A    between atoms: _432  and  _434
REMARK  180  A    between atoms: _434  and  _435
REMARK  181  A    between atoms: _437  and  _439
REMARK  182  A    between atoms: _439  and  _440
REMARK  183  A    between atoms: _439  and  _442
REMARK  184  A    between atoms: _442  and  _443
REMARK  185  A    between atoms: _446  and  _448
REMARK  186  A    between atoms: _448  and  _449
REMARK  187  A    between atoms: _451  and  _453
REMARK  188  A    between atoms: _453  and  _454
REMARK  189  A    between atoms: _456  and  _458
REMARK  190  A    between atoms: _458  and  _459
REMARK  191  A    between atoms: _458  and  _461
REMARK  192  A    between atoms: _461  and  _462
REMARK  193  A    between atoms: _468  and  _470
REMARK  194  A    between atoms: _470  and  _471
REMARK  195  A    between atoms: _470  and  _473
REMARK  196  A    between atoms: _473  and  _474
REMARK  197  A    between atoms: _477  and  _479
REMARK  198  A    between atoms: _479  and  _480
REMARK  199  A    between atoms: _479  and  _482
REMARK  200  A    between atoms: _485  and  _487
REMARK  201  A    between atoms: _487  and  _488
REMARK  202  A    between atoms: _487  and  _490
REMARK  203  A    between atoms: _490  and  _491
REMARK  204  A    between atoms: _494  and  _496
REMARK  205  A    between atoms: _496  and  _497
REMARK  206  A    between atoms: _496  and  _499
REMARK  207  A    between atoms: _499  and  _500
REMARK  208  A    between atoms: _504  and  _505
REMARK  209  A    between atoms: _510  and  _512
REMARK  210  A    between atoms: _512  and  _513
REMARK  211  A    between atoms: _512  and  _515
REMARK  212  A    between atoms: _518  and  _520
REMARK  213  A    between atoms: _520  and  _521
REMARK  214  A    between atoms: _520  and  _523
REMARK  215  A    between atoms: _523  and  _524
REMARK  216  A    between atoms: _529  and  _531
REMARK  217  A    between atoms: _531  and  _532
REMARK  218  A    between atoms: _531  and  _534
REMARK  219  A    between atoms: _534  and  _535
REMARK  220  A    between atoms: _538  and  _540
REMARK  221  A    between atoms: _540  and  _541
REMARK  222  A    between atoms: _540  and  _543
REMARK  223  A    between atoms: _543  and  _544
REMARK  224  A    between atoms: _547  and  _549
REMARK  225  A    between atoms: _549  and  _550
REMARK  226  A    between atoms: _552  and  _554
REMARK  227  A    between atoms: _554  and  _555
REMARK  228  A    between atoms: _554  and  _557
REMARK  229  A    between atoms: _557  and  _558
REMARK  230  A    between atoms: _558  and  _559
REMARK  231  A    between atoms: _559  and  _560
REMARK  232  A    between atoms: _569  and  _571
REMARK  233  A    between atoms: _571  and  _572
REMARK  234  A    between atoms: _571  and  _574
REMARK  235  A    between atoms: _574  and  _575
REMARK                            x       y       z     vdW  Elec       q    Type
REMARK                         _______ _______ _______ _____ _____    ______ ____
ROOT
ATOM      1  O   HOH     1       6.511  15.682  25.013  0.00  0.00    +0.000 OA
ENDROOT
TORSDOF 0
REMARK  Name = ../refined-set-2016/2f80/2f80_pocket.pdb
REMARK  235 active torsions:
REMARK  status: ('A' for Active; 'I' for Inactive)
REMARK    1  A    between atoms: _1  and  _3
REMARK    2  A    between atoms: _3  and  _4
REMARK    3  A    between atoms: _3  and  _6
REMARK    4  A    between atoms: _6  and  _7
REMARK    5  A    between atoms: _7  and  _8
REMARK    6  A    between atoms: _8  and  _9
REMARK    7  A    between atoms: _18  and  _20
REMARK    8  A    between atoms: _20  and  _21
REMARK    9  A    between atoms: _20  and  _23
REMARK   10  A    between atoms: _23  and  _24
REMARK   11  A    between atoms: _27  and  _29
REMARK   12  A    between atoms: _29  and  _30
REMARK   13  A    between atoms: _29  and  _32
REMARK   14  A    between atoms: _32  and  _33
REMARK   15  A    between atoms: _36  and  _38
REMARK   16  A    between atoms: _38  and  _39
REMARK   17  A    between atoms: _38  and  _41
REMARK   18  A    between atoms: _41  and  _42
REMARK   19  A    between atoms: _45  and  _47
REMARK   20  A    between atoms: _47  and  _48
REMARK   21  A    between atoms: _47  and  _50
REMARK   22  A    between atoms: _50  and  _51
REMARK   23  A    between atoms: _54  and  _56
REMARK   24  A    between atoms: _56  and  _57
REMARK   25  A    between atoms: _59  and  _61
REMARK   26  A    between atoms: _61  and  _62
REMARK   27  A    between atoms: _65  and  _67
REMARK   28  A    between atoms: _67  and  _68
REMARK   29  A    between atoms: _67  and  _70
REMARK   30  A    between atoms: _70  and  _71
REMARK   31  A    between atoms: _74  and  _76
REMARK   32  A    between atoms: _76  and  _77
REMARK   33  A    between atoms: _76  and  _79
REMARK   34  A    between atoms: _79  and  _80
REMARK   35  A    between atoms: _85  and  _87
REMARK   36  A    between atoms: _87  and  _88
REMARK   37  A    between atoms: _87  and  _90
REMARK   38  A    between atoms: _90  and  _91
REMARK   39  A    between atoms: _94  and  _96
REMARK   40  A    between atoms: _96  and  _97
REMARK   41  A    between atoms: _96  and  _99
REMARK   42  A    between atoms: _102  and  _104
REMARK   43  A    between atoms: _104  and  _105
REMARK   44  A    between atoms: _104  and  _107
REMARK   45  A    between atoms: _107  and  _108
REMARK   46  A    between atoms: _111  and  _113
REMARK   47  A    between atoms: _113  and  _114
REMARK   48  A    between atoms: _113  and  _116
REMARK   49  A    between atoms: _117  and  _118
REMARK   50  A    between atoms: _118  and  _119
REMARK   51  A    between atoms: _119  and  _120
REMARK   52  A    between atoms: _124  and  _126
REMARK   53  A    between atoms: _126  and  _127
REMARK   54  A    between atoms: _126  and  _129
REMARK   55  A    between atoms: _129  and  _130
REMARK   56  A    between atoms: _130  and  _131
REMARK   57  A    between atoms: _133  and  _135
REMARK   58  A    between atoms: _135  and  _136
REMARK   59  A    between atoms: _135  and  _138
REMARK   60  A    between atoms: _138  and  _139
REMARK   61  A    between atoms: _142  and  _144
REMARK   62  A    between atoms: _144  and  _145
REMARK   63  A    between atoms: _147  and  _149
REMARK   64  A    between atoms: _149  and  _150
REMARK   65  A    between atoms: _152  and  _154
REMARK   66  A    between atoms: _154  and  _155
REMARK   67  A    between atoms: _154  and  _157
REMARK   68  A    between atoms: _157  and  _158
REMARK   69  A    between atoms: _161  and  _163
REMARK   70  A    between atoms: _163  and  _164
REMARK   71  A    between atoms: _166  and  _168
REMARK   72  A    between atoms: _168  and  _169
REMARK   73  A    between atoms: _171  and  _173
REMARK   74  A    between atoms: _173  and  _174
REMARK   75  A    between atoms: _173  and  _176
REMARK   76  A    between atoms: _176  and  _177
REMARK   77  A    between atoms: _183  and  _185
REMARK   78  A    between atoms: _185  and  _186
REMARK   79  A    between atoms: _185  and  _188
REMARK   80  A    between atoms: _188  and  _189
REMARK   81  A    between atoms: _192  and  _194
REMARK   82  A    between atoms: _194  and  _195
REMARK   83  A    between atoms: _194  and  _197
REMARK   84  A    between atoms: _200  and  _202
REMARK   85  A    between atoms: _202  and  _203
REMARK   86  A    between atoms: _202  and  _205
REMARK   87  A    between atoms: _205  and  _206
REMARK   88  A    between atoms: _209  and  _211
REMARK   89  A    between atoms: _211  and  _212
REMARK   90  A    between atoms: _211  and  _214
REMARK   91  A    between atoms: _214  and  _215
REMARK   92  A    between atoms: _219  and  _220
REMARK   93  A    between atoms: _225  and  _227
REMARK   94  A    between atoms: _227  and  _228
REMARK   95  A    between atoms: _227  and  _230
REMARK   96  A    between atoms: _233  and  _235
REMARK   97  A    between atoms: _235  and  _236
REMARK   98  A    between atoms: _235  and  _238
REMARK   99  A    between atoms: _238  and  _239
REMARK  100  A    between atoms: _244  and  _246
REMARK  101  A    between atoms: _246  and  _247
REMARK  102  A    between atoms: _246  and  _249
REMARK  103  A    between atoms: _249  and  _250
REMARK  104  A    between atoms: _253  and  _255
REMARK  105  A    between atoms: _255  and  _256
REMARK  106  A    between atoms: _255  and  _258
REMARK  107  A    between atoms: _258  and  _259
REMARK  108  A    between atoms: _262  and  _264
REMARK  109  A    between atoms: _264  and  _265
REMARK  110  A    between atoms: _267  and  _269
REMARK  111  A    between atoms: _269  and  _270
REMARK  112  A    between atoms: _269  and  _272
REMARK  113  A    between atoms: _272  and  _273
REMARK  114  A    between atoms: _273  and  _274
REMARK  115  A    between atoms: _274  and  _275
REMARK  116  A    between atoms: _284  and  _286
REMARK  117  A    between atoms: _286  and  _287
REMARK  118  A    between atoms: _286  and  _289
REMARK  119  A    between atoms: _289  and  _290
REMARK  120  A    between atoms: _295  and  _297
REMARK  121  A    between atoms: _297  and  _298
REMARK  122  A    between atoms: _297  and  _300
REMARK  123  A    between atoms: _300  and  _301
REMARK  124  A    between atoms: _301  and  _302
REMARK  125  A    between atoms: _302  and  _303
REMARK  126  A    between atoms: _312  and  _314
REMARK  127  A    between atoms: _314  and  _315
REMARK  128  A    between atoms: _314  and  _317
REMARK  129  A    between atoms: _317  and  _318
REMARK  130  A    between atoms: _321  and  _323
REMARK  131  A    between atoms: _323  and  _324
REMARK  132  A    between atoms: _323  and  _326
REMARK  133  A    between atoms: _326  and  _327
REMARK  134  A    between atoms: _330  and  _332
REMARK  135  A    between atoms: _332  and  _333
REMARK  136  A    between atoms: _332  and  _335
REMARK  137  A    between atoms: _335  and  _336
REMARK  138  A    between atoms: _339  and  _341
REMARK  139  A    between atoms: _341  and  _342
REMARK  140  A    between atoms: _341  and  _344
REMARK  141  A    between atoms: _344  and  _345
REMARK  142  A    between atoms: _348  and  _350
REMARK  143  A    between atoms: _350  and  _351
REMARK  144  A    between atoms: _353  and  _355
REMARK  145  A    between atoms: _355  and  _356
REMARK  146  A    between atoms: _359  and  _361
REMARK  147  A    between atoms: _361  and  _362
REMARK  148  A    between atoms: _361  and  _364
REMARK  149  A    between atoms: _364  and  _365
REMARK  150  A    between atoms: _368  and  _370
REMARK  151  A    between atoms: _370  and  _371
REMARK  152  A    between atoms: _370  and  _373
REMARK  153  A    between atoms: _373  and  _374
REMARK  154  A    between atoms: _379  and  _381
REMARK  155  A    between atoms: _381  and  _382
REMARK  156  A    between atoms: _381  and  _384
REMARK  157  A    between atoms: _384  and  _385
REMARK  158  A    between atoms: _388  and  _390
REMARK  159  A    between atoms: _390  and  _391
REMARK  160  A    between atoms: _390  and  _393
REMARK  161  A    between atoms: _396  and  _398
REMARK  162  A    between atoms: _398  and  _399
REMARK  163  A    between atoms: _398  and  _401
REMARK  164  A    between atoms: _401  and  _402
REMARK  165  A    between atoms: _402  and  _403
REMARK  166  A    between atoms: _403  and  _404
REMARK  167  A    between atoms: _404  and  _405
REMARK  168  A    between atoms: _409  and  _411
REMARK  169  A    between atoms: _411  and  _412
REMARK  170  A    between atoms: _411  and  _414
REMARK  171  A    between atoms: _414  and  _415
REMARK  172  A    between atoms: _415  and  _416
REMARK  173  A    between atoms: _418  and  _420
REMARK  174  A    between atoms: _420  and  _421
REMARK  175  A    between atoms: _420  and  _423
REMARK  176  A    between atoms: _423  and  _424
REMARK  177  A    between atoms: _427  and  _429
REMARK  178  A    between atoms: _429  and  _430
REMARK  179  A    between atoms: _432  and  _434
REMARK  180  A    between atoms: _434  and  _435
REMARK  181  A    between atoms: _437  and  _439
REMARK  182  A    between atoms: _439  and  _440
REMARK  183  A    between atoms: _439  and  _442
REMARK  184  A    between atoms: _442  and  _443
REMARK  185  A    between atoms: _446  and  _448
REMARK  186  A    between atoms: _448  and  _449
REMARK  187  A    between atoms: _451  and  _453
REMARK  188  A    between atoms: _453  and  _454
REMARK  189  A    between atoms: _456  and  _458
REMARK  190  A    between atoms: _458  and  _459
REMARK  191  A    between atoms: _458  and  _461
REMARK  192  A    between atoms: _461  and  _462
REMARK  193  A    between atoms: _468  and  _470
REMARK  194  A    between atoms: _470  and  _471
REMARK  195  A    between atoms: _470  and  _473
REMARK  196  A    between atoms: _473  and  _474
REMARK  197  A    between atoms: _477  and  _479
REMARK  198  A    between atoms: _479  and  _480
REMARK  199  A    between atoms: _479  and  _482
REMARK  200  A    between atoms: _485  and  _487
REMARK  201  A    between atoms: _487  and  _488
REMARK  202  A    between atoms: _487  and  _490
REMARK  203  A    between atoms: _490  and  _491
REMARK  204  A    between atoms: _494  and  _496
REMARK  205  A    between atoms: _496  and  _497
REMARK  206  A    between atoms: _496  and  _499
REMARK  207  A    between atoms: _499  and  _500
REMARK  208  A    between atoms: _504  and  _505
REMARK  209  A    between atoms: _510  and  _512
REMARK  210  A    between atoms: _512  and  _513
REMARK  211  A    between atoms: _512  and  _515
REMARK  212  A    between atoms: _518  and  _520
REMARK  213  A    between atoms: _520  and  _521
REMARK  214  A    between atoms: _520  and  _523
REMARK  215  A    between atoms: _523  and  _524
REMARK  216  A    between atoms: _529  and  _531
REMARK  217  A    between atoms: _531  and  _532
REMARK  218  A    between atoms: _531  and  _534
REMARK  219  A    between atoms: _534  and  _535
REMARK  220  A    between atoms: _538  and  _540
REMARK  221  A    between atoms: _540  and  _541
REMARK  222  A    between atoms: _540  and  _543
REMARK  223  A    between atoms: _543  and  _544
REMARK  224  A    between atoms: _547  and  _549
REMARK  225  A    between atoms: _549  and  _550
REMARK  226  A    between atoms: _552  and  _554
REMARK  227  A    between atoms: _554  and  _555
REMARK  228  A    between atoms: _554  and  _557
REMARK  229  A    between atoms: _557  and  _558
REMARK  230  A    between atoms: _558  and  _559
REMARK  231  A    between atoms: _559  and  _560
REMARK  232  A    between atoms: _569  and  _571
REMARK  233  A    between atoms: _571  and  _572
REMARK  234  A    between atoms: _571  and  _574
REMARK  235  A    between atoms: _574  and  _575
REMARK                            x       y       z     vdW  Elec       q    Type
REMARK                         _______ _______ _______ _____ _____    ______ ____
ROOT
ATOM      1  O   HOH     1      22.224  27.431  22.628  0.00  0.00    +0.000 OA
ENDROOT
TORSDOF 0
REMARK  Name = ../refined-set-2016/2f80/2f80_pocket.pdb
REMARK  235 active torsions:
REMARK  status: ('A' for Active; 'I' for Inactive)
REMARK    1  A    between atoms: _1  and  _3
REMARK    2  A    between atoms: _3  and  _4
REMARK    3  A    between atoms: _3  and  _6
REMARK    4  A    between atoms: _6  and  _7
REMARK    5  A    between atoms: _7  and  _8
REMARK    6  A    between atoms: _8  and  _9
REMARK    7  A    between atoms: _18  and  _20
REMARK    8  A    between atoms: _20  and  _21
REMARK    9  A    between atoms: _20  and  _23
REMARK   10  A    between atoms: _23  and  _24
REMARK   11  A    between atoms: _27  and  _29
REMARK   12  A    between atoms: _29  and  _30
REMARK   13  A    between atoms: _29  and  _32
REMARK   14  A    between atoms: _32  and  _33
REMARK   15  A    between atoms: _36  and  _38
REMARK   16  A    between atoms: _38  and  _39
REMARK   17  A    between atoms: _38  and  _41
REMARK   18  A    between atoms: _41  and  _42
REMARK   19  A    between atoms: _45  and  _47
REMARK   20  A    between atoms: _47  and  _48
REMARK   21  A    between atoms: _47  and  _50
REMARK   22  A    between atoms: _50  and  _51
REMARK   23  A    between atoms: _54  and  _56
REMARK   24  A    between atoms: _56  and  _57
REMARK   25  A    between atoms: _59  and  _61
REMARK   26  A    between atoms: _61  and  _62
REMARK   27  A    between atoms: _65  and  _67
REMARK   28  A    between atoms: _67  and  _68
REMARK   29  A    between atoms: _67  and  _70
REMARK   30  A    between atoms: _70  and  _71
REMARK   31  A    between atoms: _74  and  _76
REMARK   32  A    between atoms: _76  and  _77
REMARK   33  A    between atoms: _76  and  _79
REMARK   34  A    between atoms: _79  and  _80
REMARK   35  A    between atoms: _85  and  _87
REMARK   36  A    between atoms: _87  and  _88
REMARK   37  A    between atoms: _87  and  _90
REMARK   38  A    between atoms: _90  and  _91
REMARK   39  A    between atoms: _94  and  _96
REMARK   40  A    between atoms: _96  and  _97
REMARK   41  A    between atoms: _96  and  _99
REMARK   42  A    between atoms: _102  and  _104
REMARK   43  A    between atoms: _104  and  _105
REMARK   44  A    between atoms: _104  and  _107
REMARK   45  A    between atoms: _107  and  _108
REMARK   46  A    between atoms: _111  and  _113
REMARK   47  A    between atoms: _113  and  _114
REMARK   48  A    between atoms: _113  and  _116
REMARK   49  A    between atoms: _117  and  _118
REMARK   50  A    between atoms: _118  and  _119
REMARK   51  A    between atoms: _119  and  _120
REMARK   52  A    between atoms: _124  and  _126
REMARK   53  A    between atoms: _126  and  _127
REMARK   54  A    between atoms: _126  and  _129
REMARK   55  A    between atoms: _129  and  _130
REMARK   56  A    between atoms: _130  and  _131
REMARK   57  A    between atoms: _133  and  _135
REMARK   58  A    between atoms: _135  and  _136
REMARK   59  A    between atoms: _135  and  _138
REMARK   60  A    between atoms: _138  and  _139
REMARK   61  A    between atoms: _142  and  _144
REMARK   62  A    between atoms: _144  and  _145
REMARK   63  A    between atoms: _147  and  _149
REMARK   64  A    between atoms: _149  and  _150
REMARK   65  A    between atoms: _152  and  _154
REMARK   66  A    between atoms: _154  and  _155
REMARK   67  A    between atoms: _154  and  _157
REMARK   68  A    between atoms: _157  and  _158
REMARK   69  A    between atoms: _161  and  _163
REMARK   70  A    between atoms: _163  and  _164
REMARK   71  A    between atoms: _166  and  _168
REMARK   72  A    between atoms: _168  and  _169
REMARK   73  A    between atoms: _171  and  _173
REMARK   74  A    between atoms: _173  and  _174
REMARK   75  A    between atoms: _173  and  _176
REMARK   76  A    between atoms: _176  and  _177
REMARK   77  A    between atoms: _183  and  _185
REMARK   78  A    between atoms: _185  and  _186
REMARK   79  A    between atoms: _185  and  _188
REMARK   80  A    between atoms: _188  and  _189
REMARK   81  A    between atoms: _192  and  _194
REMARK   82  A    between atoms: _194  and  _195
REMARK   83  A    between atoms: _194  and  _197
REMARK   84  A    between atoms: _200  and  _202
REMARK   85  A    between atoms: _202  and  _203
REMARK   86  A    between atoms: _202  and  _205
REMARK   87  A    between atoms: _205  and  _206
REMARK   88  A    between atoms: _209  and  _211
REMARK   89  A    between atoms: _211  and  _212
REMARK   90  A    between atoms: _211  and  _214
REMARK   91  A    between atoms: _214  and  _215
REMARK   92  A    between atoms: _219  and  _220
REMARK   93  A    between atoms: _225  and  _227
REMARK   94  A    between atoms: _227  and  _228
REMARK   95  A    between atoms: _227  and  _230
REMARK   96  A    between atoms: _233  and  _235
REMARK   97  A    between atoms: _235  and  _236
REMARK   98  A    between atoms: _235  and  _238
REMARK   99  A    between atoms: _238  and  _239
REMARK  100  A    between atoms: _244  and  _246
REMARK  101  A    between atoms: _246  and  _247
REMARK  102  A    between atoms: _246  and  _249
REMARK  103  A    between atoms: _249  and  _250
REMARK  104  A    between atoms: _253  and  _255
REMARK  105  A    between atoms: _255  and  _256
REMARK  106  A    between atoms: _255  and  _258
REMARK  107  A    between atoms: _258  and  _259
REMARK  108  A    between atoms: _262  and  _264
REMARK  109  A    between atoms: _264  and  _265
REMARK  110  A    between atoms: _267  and  _269
REMARK  111  A    between atoms: _269  and  _270
REMARK  112  A    between atoms: _269  and  _272
REMARK  113  A    between atoms: _272  and  _273
REMARK  114  A    between atoms: _273  and  _274
REMARK  115  A    between atoms: _274  and  _275
REMARK  116  A    between atoms: _284  and  _286
REMARK  117  A    between atoms: _286  and  _287
REMARK  118  A    between atoms: _286  and  _289
REMARK  119  A    between atoms: _289  and  _290
REMARK  120  A    between atoms: _295  and  _297
REMARK  121  A    between atoms: _297  and  _298
REMARK  122  A    between atoms: _297  and  _300
REMARK  123  A    between atoms: _300  and  _301
REMARK  124  A    between atoms: _301  and  _302
REMARK  125  A    between atoms: _302  and  _303
REMARK  126  A    between atoms: _312  and  _314
REMARK  127  A    between atoms: _314  and  _315
REMARK  128  A    between atoms: _314  and  _317
REMARK  129  A    between atoms: _317  and  _318
REMARK  130  A    between atoms: _321  and  _323
REMARK  131  A    between atoms: _323  and  _324
REMARK  132  A    between atoms: _323  and  _326
REMARK  133  A    between atoms: _326  and  _327
REMARK  134  A    between atoms: _330  and  _332
REMARK  135  A    between atoms: _332  and  _333
REMARK  136  A    between atoms: _332  and  _335
REMARK  137  A    between atoms: _335  and  _336
REMARK  138  A    between atoms: _339  and  _341
REMARK  139  A    between atoms: _341  and  _342
REMARK  140  A    between atoms: _341  and  _344
REMARK  141  A    between atoms: _344  and  _345
REMARK  142  A    between atoms: _348  and  _350
REMARK  143  A    between atoms: _350  and  _351
REMARK  144  A    between atoms: _353  and  _355
REMARK  145  A    between atoms: _355  and  _356
REMARK  146  A    between atoms: _359  and  _361
REMARK  147  A    between atoms: _361  and  _362
REMARK  148  A    between atoms: _361  and  _364
REMARK  149  A    between atoms: _364  and  _365
REMARK  150  A    between atoms: _368  and  _370
REMARK  151  A    between atoms: _370  and  _371
REMARK  152  A    between atoms: _370  and  _373
REMARK  153  A    between atoms: _373  and  _374
REMARK  154  A    between atoms: _379  and  _381
REMARK  155  A    between atoms: _381  and  _382
REMARK  156  A    between atoms: _381  and  _384
REMARK  157  A    between atoms: _384  and  _385
REMARK  158  A    between atoms: _388  and  _390
REMARK  159  A    between atoms: _390  and  _391
REMARK  160  A    between atoms: _390  and  _393
REMARK  161  A    between atoms: _396  and  _398
REMARK  162  A    between atoms: _398  and  _399
REMARK  163  A    between atoms: _398  and  _401
REMARK  164  A    between atoms: _401  and  _402
REMARK  165  A    between atoms: _402  and  _403
REMARK  166  A    between atoms: _403  and  _404
REMARK  167  A    between atoms: _404  and  _405
REMARK  168  A    between atoms: _409  and  _411
REMARK  169  A    between atoms: _411  and  _412
REMARK  170  A    between atoms: _411  and  _414
REMARK  171  A    between atoms: _414  and  _415
REMARK  172  A    between atoms: _415  and  _416
REMARK  173  A    between atoms: _418  and  _420
REMARK  174  A    between atoms: _420  and  _421
REMARK  175  A    between atoms: _420  and  _423
REMARK  176  A    between atoms: _423  and  _424
REMARK  177  A    between atoms: _427  and  _429
REMARK  178  A    between atoms: _429  and  _430
REMARK  179  A    between atoms: _432  and  _434
REMARK  180  A    between atoms: _434  and  _435
REMARK  181  A    between atoms: _437  and  _439
REMARK  182  A    between atoms: _439  and  _440
REMARK  183  A    between atoms: _439  and  _442
REMARK  184  A    between atoms: _442  and  _443
REMARK  185  A    between atoms: _446  and  _448
REMARK  186  A    between atoms: _448  and  _449
REMARK  187  A    between atoms: _451  and  _453
REMARK  188  A    between atoms: _453  and  _454
REMARK  189  A    between atoms: _456  and  _458
REMARK  190  A    between atoms: _458  and  _459
REMARK  191  A    between atoms: _458  and  _461
REMARK  192  A    between atoms: _461  and  _462
REMARK  193  A    between atoms: _468  and  _470
REMARK  194  A    between atoms: _470  and  _471
REMARK  195  A    between atoms: _470  and  _473
REMARK  196  A    between atoms: _473  and  _474
REMARK  197  A    between atoms: _477  and  _479
REMARK  198  A    between atoms: _479  and  _480
REMARK  199  A    between atoms: _479  and  _482
REMARK  200  A    between atoms: _485  and  _487
REMARK  201  A    between atoms: _487  and  _488
REMARK  202  A    between atoms: _487  and  _490
REMARK  203  A    between atoms: _490  and  _491
REMARK  204  A    between atoms: _494  and  _496
REMARK  205  A    between atoms: _496  and  _497
REMARK  206  A    between atoms: _496  and  _499
REMARK  207  A    between atoms: _499  and  _500
REMARK  208  A    between atoms: _504  and  _505
REMARK  209  A    between atoms: _510  and  _512
REMARK  210  A    between atoms: _512  and  _513
REMARK  211  A    between atoms: _512  and  _515
REMARK  212  A    between atoms: _518  and  _520
REMARK  213  A    between atoms: _520  and  _521
REMARK  214  A    between atoms: _520  and  _523
REMARK  215  A    between atoms: _523  and  _524
REMARK  216  A    between atoms: _529  and  _531
REMARK  217  A    between atoms: _531  and  _532
REMARK  218  A    between atoms: _531  and  _534
REMARK  219  A    between atoms: _534  and  _535
REMARK  220  A    between atoms: _538  and  _540
REMARK  221  A    between atoms: _540  and  _541
REMARK  222  A    between atoms: _540  and  _543
REMARK  223  A    between atoms: _543  and  _544
REMARK  224  A    between atoms: _547  and  _549
REMARK  225  A    between atoms: _549  and  _550
REMARK  226  A    between atoms: _552  and  _554
REMARK  227  A    between atoms: _554  and  _555
REMARK  228  A    between atoms: _554  and  _557
REMARK  229  A    between atoms: _557  and  _558
REMARK  230  A    between atoms: _558  and  _559
REMARK  231  A    between atoms: _559  and  _560
REMARK  232  A    between atoms: _569  and  _571
REMARK  233  A    between atoms: _571  and  _572
REMARK  234  A    between atoms: _571  and  _574
REMARK  235  A    between atoms: _574  and  _575
REMARK                            x       y       z     vdW  Elec       q    Type
REMARK                         _______ _______ _______ _____ _____    ______ ____
ROOT
ATOM      1  O   HOH     1       6.834  15.632  18.003  0.00  0.00    +0.000 OA
ENDROOT
TORSDOF 0
REMARK  Name = ../refined-set-2016/2f80/2f80_pocket.pdb
REMARK  235 active torsions:
REMARK  status: ('A' for Active; 'I' for Inactive)
REMARK    1  A    between atoms: _1  and  _3
REMARK    2  A    between atoms: _3  and  _4
REMARK    3  A    between atoms: _3  and  _6
REMARK    4  A    between atoms: _6  and  _7
REMARK    5  A    between atoms: _7  and  _8
REMARK    6  A    between atoms: _8  and  _9
REMARK    7  A    between atoms: _18  and  _20
REMARK    8  A    between atoms: _20  and  _21
REMARK    9  A    between atoms: _20  and  _23
REMARK   10  A    between atoms: _23  and  _24
REMARK   11  A    between atoms: _27  and  _29
REMARK   12  A    between atoms: _29  and  _30
REMARK   13  A    between atoms: _29  and  _32
REMARK   14  A    between atoms: _32  and  _33
REMARK   15  A    between atoms: _36  and  _38
REMARK   16  A    between atoms: _38  and  _39
REMARK   17  A    between atoms: _38  and  _41
REMARK   18  A    between atoms: _41  and  _42
REMARK   19  A    between atoms: _45  and  _47
REMARK   20  A    between atoms: _47  and  _48
REMARK   21  A    between atoms: _47  and  _50
REMARK   22  A    between atoms: _50  and  _51
REMARK   23  A    between atoms: _54  and  _56
REMARK   24  A    between atoms: _56  and  _57
REMARK   25  A    between atoms: _59  and  _61
REMARK   26  A    between atoms: _61  and  _62
REMARK   27  A    between atoms: _65  and  _67
REMARK   28  A    between atoms: _67  and  _68
REMARK   29  A    between atoms: _67  and  _70
REMARK   30  A    between atoms: _70  and  _71
REMARK   31  A    between atoms: _74  and  _76
REMARK   32  A    between atoms: _76  and  _77
REMARK   33  A    between atoms: _76  and  _79
REMARK   34  A    between atoms: _79  and  _80
REMARK   35  A    between atoms: _85  and  _87
REMARK   36  A    between atoms: _87  and  _88
REMARK   37  A    between atoms: _87  and  _90
REMARK   38  A    between atoms: _90  and  _91
REMARK   39  A    between atoms: _94  and  _96
REMARK   40  A    between atoms: _96  and  _97
REMARK   41  A    between atoms: _96  and  _99
REMARK   42  A    between atoms: _102  and  _104
REMARK   43  A    between atoms: _104  and  _105
REMARK   44  A    between atoms: _104  and  _107
REMARK   45  A    between atoms: _107  and  _108
REMARK   46  A    between atoms: _111  and  _113
REMARK   47  A    between atoms: _113  and  _114
REMARK   48  A    between atoms: _113  and  _116
REMARK   49  A    between atoms: _117  and  _118
REMARK   50  A    between atoms: _118  and  _119
REMARK   51  A    between atoms: _119  and  _120
REMARK   52  A    between atoms: _124  and  _126
REMARK   53  A    between atoms: _126  and  _127
REMARK   54  A    between atoms: _126  and  _129
REMARK   55  A    between atoms: _129  and  _130
REMARK   56  A    between atoms: _130  and  _131
REMARK   57  A    between atoms: _133  and  _135
REMARK   58  A    between atoms: _135  and  _136
REMARK   59  A    between atoms: _135  and  _138
REMARK   60  A    between atoms: _138  and  _139
REMARK   61  A    between atoms: _142  and  _144
REMARK   62  A    between atoms: _144  and  _145
REMARK   63  A    between atoms: _147  and  _149
REMARK   64  A    between atoms: _149  and  _150
REMARK   65  A    between atoms: _152  and  _154
REMARK   66  A    between atoms: _154  and  _155
REMARK   67  A    between atoms: _154  and  _157
REMARK   68  A    between atoms: _157  and  _158
REMARK   69  A    between atoms: _161  and  _163
REMARK   70  A    between atoms: _163  and  _164
REMARK   71  A    between atoms: _166  and  _168
REMARK   72  A    between atoms: _168  and  _169
REMARK   73  A    between atoms: _171  and  _173
REMARK   74  A    between atoms: _173  and  _174
REMARK   75  A    between atoms: _173  and  _176
REMARK   76  A    between atoms: _176  and  _177
REMARK   77  A    between atoms: _183  and  _185
REMARK   78  A    between atoms: _185  and  _186
REMARK   79  A    between atoms: _185  and  _188
REMARK   80  A    between atoms: _188  and  _189
REMARK   81  A    between atoms: _192  and  _194
REMARK   82  A    between atoms: _194  and  _195
REMARK   83  A    between atoms: _194  and  _197
REMARK   84  A    between atoms: _200  and  _202
REMARK   85  A    between atoms: _202  and  _203
REMARK   86  A    between atoms: _202  and  _205
REMARK   87  A    between atoms: _205  and  _206
REMARK   88  A    between atoms: _209  and  _211
REMARK   89  A    between atoms: _211  and  _212
REMARK   90  A    between atoms: _211  and  _214
REMARK   91  A    between atoms: _214  and  _215
REMARK   92  A    between atoms: _219  and  _220
REMARK   93  A    between atoms: _225  and  _227
REMARK   94  A    between atoms: _227  and  _228
REMARK   95  A    between atoms: _227  and  _230
REMARK   96  A    between atoms: _233  and  _235
REMARK   97  A    between atoms: _235  and  _236
REMARK   98  A    between atoms: _235  and  _238
REMARK   99  A    between atoms: _238  and  _239
REMARK  100  A    between atoms: _244  and  _246
REMARK  101  A    between atoms: _246  and  _247
REMARK  102  A    between atoms: _246  and  _249
REMARK  103  A    between atoms: _249  and  _250
REMARK  104  A    between atoms: _253  and  _255
REMARK  105  A    between atoms: _255  and  _256
REMARK  106  A    between atoms: _255  and  _258
REMARK  107  A    between atoms: _258  and  _259
REMARK  108  A    between atoms: _262  and  _264
REMARK  109  A    between atoms: _264  and  _265
REMARK  110  A    between atoms: _267  and  _269
REMARK  111  A    between atoms: _269  and  _270
REMARK  112  A    between atoms: _269  and  _272
REMARK  113  A    between atoms: _272  and  _273
REMARK  114  A    between atoms: _273  and  _274
REMARK  115  A    between atoms: _274  and  _275
REMARK  116  A    between atoms: _284  and  _286
REMARK  117  A    between atoms: _286  and  _287
REMARK  118  A    between atoms: _286  and  _289
REMARK  119  A    between atoms: _289  and  _290
REMARK  120  A    between atoms: _295  and  _297
REMARK  121  A    between atoms: _297  and  _298
REMARK  122  A    between atoms: _297  and  _300
REMARK  123  A    between atoms: _300  and  _301
REMARK  124  A    between atoms: _301  and  _302
REMARK  125  A    between atoms: _302  and  _303
REMARK  126  A    between atoms: _312  and  _314
REMARK  127  A    between atoms: _314  and  _315
REMARK  128  A    between atoms: _314  and  _317
REMARK  129  A    between atoms: _317  and  _318
REMARK  130  A    between atoms: _321  and  _323
REMARK  131  A    between atoms: _323  and  _324
REMARK  132  A    between atoms: _323  and  _326
REMARK  133  A    between atoms: _326  and  _327
REMARK  134  A    between atoms: _330  and  _332
REMARK  135  A    between atoms: _332  and  _333
REMARK  136  A    between atoms: _332  and  _335
REMARK  137  A    between atoms: _335  and  _336
REMARK  138  A    between atoms: _339  and  _341
REMARK  139  A    between atoms: _341  and  _342
REMARK  140  A    between atoms: _341  and  _344
REMARK  141  A    between atoms: _344  and  _345
REMARK  142  A    between atoms: _348  and  _350
REMARK  143  A    between atoms: _350  and  _351
REMARK  144  A    between atoms: _353  and  _355
REMARK  145  A    between atoms: _355  and  _356
REMARK  146  A    between atoms: _359  and  _361
REMARK  147  A    between atoms: _361  and  _362
REMARK  148  A    between atoms: _361  and  _364
REMARK  149  A    between atoms: _364  and  _365
REMARK  150  A    between atoms: _368  and  _370
REMARK  151  A    between atoms: _370  and  _371
REMARK  152  A    between atoms: _370  and  _373
REMARK  153  A    between atoms: _373  and  _374
REMARK  154  A    between atoms: _379  and  _381
REMARK  155  A    between atoms: _381  and  _382
REMARK  156  A    between atoms: _381  and  _384
REMARK  157  A    between atoms: _384  and  _385
REMARK  158  A    between atoms: _388  and  _390
REMARK  159  A    between atoms: _390  and  _391
REMARK  160  A    between atoms: _390  and  _393
REMARK  161  A    between atoms: _396  and  _398
REMARK  162  A    between atoms: _398  and  _399
REMARK  163  A    between atoms: _398  and  _401
REMARK  164  A    between atoms: _401  and  _402
REMARK  165  A    between atoms: _402  and  _403
REMARK  166  A    between atoms: _403  and  _404
REMARK  167  A    between atoms: _404  and  _405
REMARK  168  A    between atoms: _409  and  _411
REMARK  169  A    between atoms: _411  and  _412
REMARK  170  A    between atoms: _411  and  _414
REMARK  171  A    between atoms: _414  and  _415
REMARK  172  A    between atoms: _415  and  _416
REMARK  173  A    between atoms: _418  and  _420
REMARK  174  A    between atoms: _420  and  _421
REMARK  175  A    between atoms: _420  and  _423
REMARK  176  A    between atoms: _423  and  _424
REMARK  177  A    between atoms: _427  and  _429
REMARK  178  A    between atoms: _429  and  _430
REMARK  179  A    between atoms: _432  and  _434
REMARK  180  A    between atoms: _434  and  _435
REMARK  181  A    between atoms: _437  and  _439
REMARK  182  A    between atoms: _439  and  _440
REMARK  183  A    between atoms: _439  and  _442
REMARK  184  A    between atoms: _442  and  _443
REMARK  185  A    between atoms: _446  and  _448
REMARK  186  A    between atoms: _448  and  _449
REMARK  187  A    between atoms: _451  and  _453
REMARK  188  A    between atoms: _453  and  _454
REMARK  189  A    between atoms: _456  and  _458
REMARK  190  A    between atoms: _458  and  _459
REMARK  191  A    between atoms: _458  and  _461
REMARK  192  A    between atoms: _461  and  _462
REMARK  193  A    between atoms: _468  and  _470
REMARK  194  A    between atoms: _470  and  _471
REMARK  195  A    between atoms: _470  and  _473
REMARK  196  A    between atoms: _473  and  _474
REMARK  197  A    between atoms: _477  and  _479
REMARK  198  A    between atoms: _479  and  _480
REMARK  199  A    between atoms: _479  and  _482
REMARK  200  A    between atoms: _485  and  _487
REMARK  201  A    between atoms: _487  and  _488
REMARK  202  A    between atoms: _487  and  _490
REMARK  203  A    between atoms: _490  and  _491
REMARK  204  A    between atoms: _494  and  _496
REMARK  205  A    between atoms: _496  and  _497
REMARK  206  A    between atoms: _496  and  _499
REMARK  207  A    between atoms: _499  and  _500
REMARK  208  A    between atoms: _504  and  _505
REMARK  209  A    between atoms: _510  and  _512
REMARK  210  A    between atoms: _512  and  _513
REMARK  211  A    between atoms: _512  and  _515
REMARK  212  A    between atoms: _518  and  _520
REMARK  213  A    between atoms: _520  and  _521
REMARK  214  A    between atoms: _520  and  _523
REMARK  215  A    between atoms: _523  and  _524
REMARK  216  A    between atoms: _529  and  _531
REMARK  217  A    between atoms: _531  and  _532
REMARK  218  A    between atoms: _531  and  _534
REMARK  219  A    between atoms: _534  and  _535
REMARK  220  A    between atoms: _538  and  _540
REMARK  221  A    between atoms: _540  and  _541
REMARK  222  A    between atoms: _540  and  _543
REMARK  223  A    between atoms: _543  and  _544
REMARK  224  A    between atoms: _547  and  _549
REMARK  225  A    between atoms: _549  and  _550
REMARK  226  A    between atoms: _552  and  _554
REMARK  227  A    between atoms: _554  and  _555
REMARK  228  A    between atoms: _554  and  _557
REMARK  229  A    between atoms: _557  and  _558
REMARK  230  A    between atoms: _558  and  _559
REMARK  231  A    between atoms: _559  and  _560
REMARK  232  A    between atoms: _569  and  _571
REMARK  233  A    between atoms: _571  and  _572
REMARK  234  A    between atoms: _571  and  _574
REMARK  235  A    between atoms: _574  and  _575
REMARK                            x       y       z     vdW  Elec       q    Type
REMARK                         _______ _______ _______ _____ _____    ______ ____
ROOT
ATOM      1  O   HOH     1      23.414  27.836  26.209  0.00  0.00    +0.000 OA
ENDROOT
TORSDOF 0
REMARK  Name = ../refined-set-2016/2f80/2f80_pocket.pdb
REMARK  235 active torsions:
REMARK  status: ('A' for Active; 'I' for Inactive)
REMARK    1  A    between atoms: _1  and  _3
REMARK    2  A    between atoms: _3  and  _4
REMARK    3  A    between atoms: _3  and  _6
REMARK    4  A    between atoms: _6  and  _7
REMARK    5  A    between atoms: _7  and  _8
REMARK    6  A    between atoms: _8  and  _9
REMARK    7  A    between atoms: _18  and  _20
REMARK    8  A    between atoms: _20  and  _21
REMARK    9  A    between atoms: _20  and  _23
REMARK   10  A    between atoms: _23  and  _24
REMARK   11  A    between atoms: _27  and  _29
REMARK   12  A    between atoms: _29  and  _30
REMARK   13  A    between atoms: _29  and  _32
REMARK   14  A    between atoms: _32  and  _33
REMARK   15  A    between atoms: _36  and  _38
REMARK   16  A    between atoms: _38  and  _39
REMARK   17  A    between atoms: _38  and  _41
REMARK   18  A    between atoms: _41  and  _42
REMARK   19  A    between atoms: _45  and  _47
REMARK   20  A    between atoms: _47  and  _48
REMARK   21  A    between atoms: _47  and  _50
REMARK   22  A    between atoms: _50  and  _51
REMARK   23  A    between atoms: _54  and  _56
REMARK   24  A    between atoms: _56  and  _57
REMARK   25  A    between atoms: _59  and  _61
REMARK   26  A    between atoms: _61  and  _62
REMARK   27  A    between atoms: _65  and  _67
REMARK   28  A    between atoms: _67  and  _68
REMARK   29  A    between atoms: _67  and  _70
REMARK   30  A    between atoms: _70  and  _71
REMARK   31  A    between atoms: _74  and  _76
REMARK   32  A    between atoms: _76  and  _77
REMARK   33  A    between atoms: _76  and  _79
REMARK   34  A    between atoms: _79  and  _80
REMARK   35  A    between atoms: _85  and  _87
REMARK   36  A    between atoms: _87  and  _88
REMARK   37  A    between atoms: _87  and  _90
REMARK   38  A    between atoms: _90  and  _91
REMARK   39  A    between atoms: _94  and  _96
REMARK   40  A    between atoms: _96  and  _97
REMARK   41  A    between atoms: _96  and  _99
REMARK   42  A    between atoms: _102  and  _104
REMARK   43  A    between atoms: _104  and  _105
REMARK   44  A    between atoms: _104  and  _107
REMARK   45  A    between atoms: _107  and  _108
REMARK   46  A    between atoms: _111  and  _113
REMARK   47  A    between atoms: _113  and  _114
REMARK   48  A    between atoms: _113  and  _116
REMARK   49  A    between atoms: _117  and  _118
REMARK   50  A    between atoms: _118  and  _119
REMARK   51  A    between atoms: _119  and  _120
REMARK   52  A    between atoms: _124  and  _126
REMARK   53  A    between atoms: _126  and  _127
REMARK   54  A    between atoms: _126  and  _129
REMARK   55  A    between atoms: _129  and  _130
REMARK   56  A    between atoms: _130  and  _131
REMARK   57  A    between atoms: _133  and  _135
REMARK   58  A    between atoms: _135  and  _136
REMARK   59  A    between atoms: _135  and  _138
REMARK   60  A    between atoms: _138  and  _139
REMARK   61  A    between atoms: _142  and  _144
REMARK   62  A    between atoms: _144  and  _145
REMARK   63  A    between atoms: _147  and  _149
REMARK   64  A    between atoms: _149  and  _150
REMARK   65  A    between atoms: _152  and  _154
REMARK   66  A    between atoms: _154  and  _155
REMARK   67  A    between atoms: _154  and  _157
REMARK   68  A    between atoms: _157  and  _158
REMARK   69  A    between atoms: _161  and  _163
REMARK   70  A    between atoms: _163  and  _164
REMARK   71  A    between atoms: _166  and  _168
REMARK   72  A    between atoms: _168  and  _169
REMARK   73  A    between atoms: _171  and  _173
REMARK   74  A    between atoms: _173  and  _174
REMARK   75  A    between atoms: _173  and  _176
REMARK   76  A    between atoms: _176  and  _177
REMARK   77  A    between atoms: _183  and  _185
REMARK   78  A    between atoms: _185  and  _186
REMARK   79  A    between atoms: _185  and  _188
REMARK   80  A    between atoms: _188  and  _189
REMARK   81  A    between atoms: _192  and  _194
REMARK   82  A    between atoms: _194  and  _195
REMARK   83  A    between atoms: _194  and  _197
REMARK   84  A    between atoms: _200  and  _202
REMARK   85  A    between atoms: _202  and  _203
REMARK   86  A    between atoms: _202  and  _205
REMARK   87  A    between atoms: _205  and  _206
REMARK   88  A    between atoms: _209  and  _211
REMARK   89  A    between atoms: _211  and  _212
REMARK   90  A    between atoms: _211  and  _214
REMARK   91  A    between atoms: _214  and  _215
REMARK   92  A    between atoms: _219  and  _220
REMARK   93  A    between atoms: _225  and  _227
REMARK   94  A    between atoms: _227  and  _228
REMARK   95  A    between atoms: _227  and  _230
REMARK   96  A    between atoms: _233  and  _235
REMARK   97  A    between atoms: _235  and  _236
REMARK   98  A    between atoms: _235  and  _238
REMARK   99  A    between atoms: _238  and  _239
REMARK  100  A    between atoms: _244  and  _246
REMARK  101  A    between atoms: _246  and  _247
REMARK  102  A    between atoms: _246  and  _249
REMARK  103  A    between atoms: _249  and  _250
REMARK  104  A    between atoms: _253  and  _255
REMARK  105  A    between atoms: _255  and  _256
REMARK  106  A    between atoms: _255  and  _258
REMARK  107  A    between atoms: _258  and  _259
REMARK  108  A    between atoms: _262  and  _264
REMARK  109  A    between atoms: _264  and  _265
REMARK  110  A    between atoms: _267  and  _269
REMARK  111  A    between atoms: _269  and  _270
REMARK  112  A    between atoms: _269  and  _272
REMARK  113  A    between atoms: _272  and  _273
REMARK  114  A    between atoms: _273  and  _274
REMARK  115  A    between atoms: _274  and  _275
REMARK  116  A    between atoms: _284  and  _286
REMARK  117  A    between atoms: _286  and  _287
REMARK  118  A    between atoms: _286  and  _289
REMARK  119  A    between atoms: _289  and  _290
REMARK  120  A    between atoms: _295  and  _297
REMARK  121  A    between atoms: _297  and  _298
REMARK  122  A    between atoms: _297  and  _300
REMARK  123  A    between atoms: _300  and  _301
REMARK  124  A    between atoms: _301  and  _302
REMARK  125  A    between atoms: _302  and  _303
REMARK  126  A    between atoms: _312  and  _314
REMARK  127  A    between atoms: _314  and  _315
REMARK  128  A    between atoms: _314  and  _317
REMARK  129  A    between atoms: _317  and  _318
REMARK  130  A    between atoms: _321  and  _323
REMARK  131  A    between atoms: _323  and  _324
REMARK  132  A    between atoms: _323  and  _326
REMARK  133  A    between atoms: _326  and  _327
REMARK  134  A    between atoms: _330  and  _332
REMARK  135  A    between atoms: _332  and  _333
REMARK  136  A    between atoms: _332  and  _335
REMARK  137  A    between atoms: _335  and  _336
REMARK  138  A    between atoms: _339  and  _341
REMARK  139  A    between atoms: _341  and  _342
REMARK  140  A    between atoms: _341  and  _344
REMARK  141  A    between atoms: _344  and  _345
REMARK  142  A    between atoms: _348  and  _350
REMARK  143  A    between atoms: _350  and  _351
REMARK  144  A    between atoms: _353  and  _355
REMARK  145  A    between atoms: _355  and  _356
REMARK  146  A    between atoms: _359  and  _361
REMARK  147  A    between atoms: _361  and  _362
REMARK  148  A    between atoms: _361  and  _364
REMARK  149  A    between atoms: _364  and  _365
REMARK  150  A    between atoms: _368  and  _370
REMARK  151  A    between atoms: _370  and  _371
REMARK  152  A    between atoms: _370  and  _373
REMARK  153  A    between atoms: _373  and  _374
REMARK  154  A    between atoms: _379  and  _381
REMARK  155  A    between atoms: _381  and  _382
REMARK  156  A    between atoms: _381  and  _384
REMARK  157  A    between atoms: _384  and  _385
REMARK  158  A    between atoms: _388  and  _390
REMARK  159  A    between atoms: _390  and  _391
REMARK  160  A    between atoms: _390  and  _393
REMARK  161  A    between atoms: _396  and  _398
REMARK  162  A    between atoms: _398  and  _399
REMARK  163  A    between atoms: _398  and  _401
REMARK  164  A    between atoms: _401  and  _402
REMARK  165  A    between atoms: _402  and  _403
REMARK  166  A    between atoms: _403  and  _404
REMARK  167  A    between atoms: _404  and  _405
REMARK  168  A    between atoms: _409  and  _411
REMARK  169  A    between atoms: _411  and  _412
REMARK  170  A    between atoms: _411  and  _414
REMARK  171  A    between atoms: _414  and  _415
REMARK  172  A    between atoms: _415  and  _416
REMARK  173  A    between atoms: _418  and  _420
REMARK  174  A    between atoms: _420  and  _421
REMARK  175  A    between atoms: _420  and  _423
REMARK  176  A    between atoms: _423  and  _424
REMARK  177  A    between atoms: _427  and  _429
REMARK  178  A    between atoms: _429  and  _430
REMARK  179  A    between atoms: _432  and  _434
REMARK  180  A    between atoms: _434  and  _435
REMARK  181  A    between atoms: _437  and  _439
REMARK  182  A    between atoms: _439  and  _440
REMARK  183  A    between atoms: _439  and  _442
REMARK  184  A    between atoms: _442  and  _443
REMARK  185  A    between atoms: _446  and  _448
REMARK  186  A    between atoms: _448  and  _449
REMARK  187  A    between atoms: _451  and  _453
REMARK  188  A    between atoms: _453  and  _454
REMARK  189  A    between atoms: _456  and  _458
REMARK  190  A    between atoms: _458  and  _459
REMARK  191  A    between atoms: _458  and  _461
REMARK  192  A    between atoms: _461  and  _462
REMARK  193  A    between atoms: _468  and  _470
REMARK  194  A    between atoms: _470  and  _471
REMARK  195  A    between atoms: _470  and  _473
REMARK  196  A    between atoms: _473  and  _474
REMARK  197  A    between atoms: _477  and  _479
REMARK  198  A    between atoms: _479  and  _480
REMARK  199  A    between atoms: _479  and  _482
REMARK  200  A    between atoms: _485  and  _487
REMARK  201  A    between atoms: _487  and  _488
REMARK  202  A    between atoms: _487  and  _490
REMARK  203  A    between atoms: _490  and  _491
REMARK  204  A    between atoms: _494  and  _496
REMARK  205  A    between atoms: _496  and  _497
REMARK  206  A    between atoms: _496  and  _499
REMARK  207  A    between atoms: _499  and  _500
REMARK  208  A    between atoms: _504  and  _505
REMARK  209  A    between atoms: _510  and  _512
REMARK  210  A    between atoms: _512  and  _513
REMARK  211  A    between atoms: _512  and  _515
REMARK  212  A    between atoms: _518  and  _520
REMARK  213  A    between atoms: _520  and  _521
REMARK  214  A    between atoms: _520  and  _523
REMARK  215  A    between atoms: _523  and  _524
REMARK  216  A    between atoms: _529  and  _531
REMARK  217  A    between atoms: _531  and  _532
REMARK  218  A    between atoms: _531  and  _534
REMARK  219  A    between atoms: _534  and  _535
REMARK  220  A    between atoms: _538  and  _540
REMARK  221  A    between atoms: _540  and  _541
REMARK  222  A    between atoms: _540  and  _543
REMARK  223  A    between atoms: _543  and  _544
REMARK  224  A    between atoms: _547  and  _549
REMARK  225  A    between atoms: _549  and  _550
REMARK  226  A    between atoms: _552  and  _554
REMARK  227  A    between atoms: _554  and  _555
REMARK  228  A    between atoms: _554  and  _557
REMARK  229  A    between atoms: _557  and  _558
REMARK  230  A    between atoms: _558  and  _559
REMARK  231  A    between atoms: _559  and  _560
REMARK  232  A    between atoms: _569  and  _571
REMARK  233  A    between atoms: _571  and  _572
REMARK  234  A    between atoms: _571  and  _574
REMARK  235  A    between atoms: _574  and  _575
REMARK                            x       y       z     vdW  Elec       q    Type
REMARK                         _______ _______ _______ _____ _____    ______ ____
ROOT
ATOM      1  O   HOH     1      13.140  16.086  11.551  0.00  0.00    +0.000 OA
ENDROOT
TORSDOF 0
REMARK  Name = ../refined-set-2016/2f80/2f80_pocket.pdb
REMARK  235 active torsions:
REMARK  status: ('A' for Active; 'I' for Inactive)
REMARK    1  A    between atoms: _1  and  _3
REMARK    2  A    between atoms: _3  and  _4
REMARK    3  A    between atoms: _3  and  _6
REMARK    4  A    between atoms: _6  and  _7
REMARK    5  A    between atoms: _7  and  _8
REMARK    6  A    between atoms: _8  and  _9
REMARK    7  A    between atoms: _18  and  _20
REMARK    8  A    between atoms: _20  and  _21
REMARK    9  A    between atoms: _20  and  _23
REMARK   10  A    between atoms: _23  and  _24
REMARK   11  A    between atoms: _27  and  _29
REMARK   12  A    between atoms: _29  and  _30
REMARK   13  A    between atoms: _29  and  _32
REMARK   14  A    between atoms: _32  and  _33
REMARK   15  A    between atoms: _36  and  _38
REMARK   16  A    between atoms: _38  and  _39
REMARK   17  A    between atoms: _38  and  _41
REMARK   18  A    between atoms: _41  and  _42
REMARK   19  A    between atoms: _45  and  _47
REMARK   20  A    between atoms: _47  and  _48
REMARK   21  A    between atoms: _47  and  _50
REMARK   22  A    between atoms: _50  and  _51
REMARK   23  A    between atoms: _54  and  _56
REMARK   24  A    between atoms: _56  and  _57
REMARK   25  A    between atoms: _59  and  _61
REMARK   26  A    between atoms: _61  and  _62
REMARK   27  A    between atoms: _65  and  _67
REMARK   28  A    between atoms: _67  and  _68
REMARK   29  A    between atoms: _67  and  _70
REMARK   30  A    between atoms: _70  and  _71
REMARK   31  A    between atoms: _74  and  _76
REMARK   32  A    between atoms: _76  and  _77
REMARK   33  A    between atoms: _76  and  _79
REMARK   34  A    between atoms: _79  and  _80
REMARK   35  A    between atoms: _85  and  _87
REMARK   36  A    between atoms: _87  and  _88
REMARK   37  A    between atoms: _87  and  _90
REMARK   38  A    between atoms: _90  and  _91
REMARK   39  A    between atoms: _94  and  _96
REMARK   40  A    between atoms: _96  and  _97
REMARK   41  A    between atoms: _96  and  _99
REMARK   42  A    between atoms: _102  and  _104
REMARK   43  A    between atoms: _104  and  _105
REMARK   44  A    between atoms: _104  and  _107
REMARK   45  A    between atoms: _107  and  _108
REMARK   46  A    between atoms: _111  and  _113
REMARK   47  A    between atoms: _113  and  _114
REMARK   48  A    between atoms: _113  and  _116
REMARK   49  A    between atoms: _117  and  _118
REMARK   50  A    between atoms: _118  and  _119
REMARK   51  A    between atoms: _119  and  _120
REMARK   52  A    between atoms: _124  and  _126
REMARK   53  A    between atoms: _126  and  _127
REMARK   54  A    between atoms: _126  and  _129
REMARK   55  A    between atoms: _129  and  _130
REMARK   56  A    between atoms: _130  and  _131
REMARK   57  A    between atoms: _133  and  _135
REMARK   58  A    between atoms: _135  and  _136
REMARK   59  A    between atoms: _135  and  _138
REMARK   60  A    between atoms: _138  and  _139
REMARK   61  A    between atoms: _142  and  _144
REMARK   62  A    between atoms: _144  and  _145
REMARK   63  A    between atoms: _147  and  _149
REMARK   64  A    between atoms: _149  and  _150
REMARK   65  A    between atoms: _152  and  _154
REMARK   66  A    between atoms: _154  and  _155
REMARK   67  A    between atoms: _154  and  _157
REMARK   68  A    between atoms: _157  and  _158
REMARK   69  A    between atoms: _161  and  _163
REMARK   70  A    between atoms: _163  and  _164
REMARK   71  A    between atoms: _166  and  _168
REMARK   72  A    between atoms: _168  and  _169
REMARK   73  A    between atoms: _171  and  _173
REMARK   74  A    between atoms: _173  and  _174
REMARK   75  A    between atoms: _173  and  _176
REMARK   76  A    between atoms: _176  and  _177
REMARK   77  A    between atoms: _183  and  _185
REMARK   78  A    between atoms: _185  and  _186
REMARK   79  A    between atoms: _185  and  _188
REMARK   80  A    between atoms: _188  and  _189
REMARK   81  A    between atoms: _192  and  _194
REMARK   82  A    between atoms: _194  and  _195
REMARK   83  A    between atoms: _194  and  _197
REMARK   84  A    between atoms: _200  and  _202
REMARK   85  A    between atoms: _202  and  _203
REMARK   86  A    between atoms: _202  and  _205
REMARK   87  A    between atoms: _205  and  _206
REMARK   88  A    between atoms: _209  and  _211
REMARK   89  A    between atoms: _211  and  _212
REMARK   90  A    between atoms: _211  and  _214
REMARK   91  A    between atoms: _214  and  _215
REMARK   92  A    between atoms: _219  and  _220
REMARK   93  A    between atoms: _225  and  _227
REMARK   94  A    between atoms: _227  and  _228
REMARK   95  A    between atoms: _227  and  _230
REMARK   96  A    between atoms: _233  and  _235
REMARK   97  A    between atoms: _235  and  _236
REMARK   98  A    between atoms: _235  and  _238
REMARK   99  A    between atoms: _238  and  _239
REMARK  100  A    between atoms: _244  and  _246
REMARK  101  A    between atoms: _246  and  _247
REMARK  102  A    between atoms: _246  and  _249
REMARK  103  A    between atoms: _249  and  _250
REMARK  104  A    between atoms: _253  and  _255
REMARK  105  A    between atoms: _255  and  _256
REMARK  106  A    between atoms: _255  and  _258
REMARK  107  A    between atoms: _258  and  _259
REMARK  108  A    between atoms: _262  and  _264
REMARK  109  A    between atoms: _264  and  _265
REMARK  110  A    between atoms: _267  and  _269
REMARK  111  A    between atoms: _269  and  _270
REMARK  112  A    between atoms: _269  and  _272
REMARK  113  A    between atoms: _272  and  _273
REMARK  114  A    between atoms: _273  and  _274
REMARK  115  A    between atoms: _274  and  _275
REMARK  116  A    between atoms: _284  and  _286
REMARK  117  A    between atoms: _286  and  _287
REMARK  118  A    between atoms: _286  and  _289
REMARK  119  A    between atoms: _289  and  _290
REMARK  120  A    between atoms: _295  and  _297
REMARK  121  A    between atoms: _297  and  _298
REMARK  122  A    between atoms: _297  and  _300
REMARK  123  A    between atoms: _300  and  _301
REMARK  124  A    between atoms: _301  and  _302
REMARK  125  A    between atoms: _302  and  _303
REMARK  126  A    between atoms: _312  and  _314
REMARK  127  A    between atoms: _314  and  _315
REMARK  128  A    between atoms: _314  and  _317
REMARK  129  A    between atoms: _317  and  _318
REMARK  130  A    between atoms: _321  and  _323
REMARK  131  A    between atoms: _323  and  _324
REMARK  132  A    between atoms: _323  and  _326
REMARK  133  A    between atoms: _326  and  _327
REMARK  134  A    between atoms: _330  and  _332
REMARK  135  A    between atoms: _332  and  _333
REMARK  136  A    between atoms: _332  and  _335
REMARK  137  A    between atoms: _335  and  _336
REMARK  138  A    between atoms: _339  and  _341
REMARK  139  A    between atoms: _341  and  _342
REMARK  140  A    between atoms: _341  and  _344
REMARK  141  A    between atoms: _344  and  _345
REMARK  142  A    between atoms: _348  and  _350
REMARK  143  A    between atoms: _350  and  _351
REMARK  144  A    between atoms: _353  and  _355
REMARK  145  A    between atoms: _355  and  _356
REMARK  146  A    between atoms: _359  and  _361
REMARK  147  A    between atoms: _361  and  _362
REMARK  148  A    between atoms: _361  and  _364
REMARK  149  A    between atoms: _364  and  _365
REMARK  150  A    between atoms: _368  and  _370
REMARK  151  A    between atoms: _370  and  _371
REMARK  152  A    between atoms: _370  and  _373
REMARK  153  A    between atoms: _373  and  _374
REMARK  154  A    between atoms: _379  and  _381
REMARK  155  A    between atoms: _381  and  _382
REMARK  156  A    between atoms: _381  and  _384
REMARK  157  A    between atoms: _384  and  _385
REMARK  158  A    between atoms: _388  and  _390
REMARK  159  A    between atoms: _390  and  _391
REMARK  160  A    between atoms: _390  and  _393
REMARK  161  A    between atoms: _396  and  _398
REMARK  162  A    between atoms: _398  and  _399
REMARK  163  A    between atoms: _398  and  _401
REMARK  164  A    between atoms: _401  and  _402
REMARK  165  A    between atoms: _402  and  _403
REMARK  166  A    between atoms: _403  and  _404
REMARK  167  A    between atoms: _404  and  _405
REMARK  168  A    between atoms: _409  and  _411
REMARK  169  A    between atoms: _411  and  _412
REMARK  170  A    between atoms: _411  and  _414
REMARK  171  A    between atoms: _414  and  _415
REMARK  172  A    between atoms: _415  and  _416
REMARK  173  A    between atoms: _418  and  _420
REMARK  174  A    between atoms: _420  and  _421
REMARK  175  A    between atoms: _420  and  _423
REMARK  176  A    between atoms: _423  and  _424
REMARK  177  A    between atoms: _427  and  _429
REMARK  178  A    between atoms: _429  and  _430
REMARK  179  A    between atoms: _432  and  _434
REMARK  180  A    between atoms: _434  and  _435
REMARK  181  A    between atoms: _437  and  _439
REMARK  182  A    between atoms: _439  and  _440
REMARK  183  A    between atoms: _439  and  _442
REMARK  184  A    between atoms: _442  and  _443
REMARK  185  A    between atoms: _446  and  _448
REMARK  186  A    between atoms: _448  and  _449
REMARK  187  A    between atoms: _451  and  _453
REMARK  188  A    between atoms: _453  and  _454
REMARK  189  A    between atoms: _456  and  _458
REMARK  190  A    between atoms: _458  and  _459
REMARK  191  A    between atoms: _458  and  _461
REMARK  192  A    between atoms: _461  and  _462
REMARK  193  A    between atoms: _468  and  _470
REMARK  194  A    between atoms: _470  and  _471
REMARK  195  A    between atoms: _470  and  _473
REMARK  196  A    between atoms: _473  and  _474
REMARK  197  A    between atoms: _477  and  _479
REMARK  198  A    between atoms: _479  and  _480
REMARK  199  A    between atoms: _479  and  _482
REMARK  200  A    between atoms: _485  and  _487
REMARK  201  A    between atoms: _487  and  _488
REMARK  202  A    between atoms: _487  and  _490
REMARK  203  A    between atoms: _490  and  _491
REMARK  204  A    between atoms: _494  and  _496
REMARK  205  A    between atoms: _496  and  _497
REMARK  206  A    between atoms: _496  and  _499
REMARK  207  A    between atoms: _499  and  _500
REMARK  208  A    between atoms: _504  and  _505
REMARK  209  A    between atoms: _510  and  _512
REMARK  210  A    between atoms: _512  and  _513
REMARK  211  A    between atoms: _512  and  _515
REMARK  212  A    between atoms: _518  and  _520
REMARK  213  A    between atoms: _520  and  _521
REMARK  214  A    between atoms: _520  and  _523
REMARK  215  A    between atoms: _523  and  _524
REMARK  216  A    between atoms: _529  and  _531
REMARK  217  A    between atoms: _531  and  _532
REMARK  218  A    between atoms: _531  and  _534
REMARK  219  A    between atoms: _534  and  _535
REMARK  220  A    between atoms: _538  and  _540
REMARK  221  A    between atoms: _540  and  _541
REMARK  222  A    between atoms: _540  and  _543
REMARK  223  A    between atoms: _543  and  _544
REMARK  224  A    between atoms: _547  and  _549
REMARK  225  A    between atoms: _549  and  _550
REMARK  226  A    between atoms: _552  and  _554
REMARK  227  A    between atoms: _554  and  _555
REMARK  228  A    between atoms: _554  and  _557
REMARK  229  A    between atoms: _557  and  _558
REMARK  230  A    between atoms: _558  and  _559
REMARK  231  A    between atoms: _559  and  _560
REMARK  232  A    between atoms: _569  and  _571
REMARK  233  A    between atoms: _571  and  _572
REMARK  234  A    between atoms: _571  and  _574
REMARK  235  A    between atoms: _574  and  _575
REMARK                            x       y       z     vdW  Elec       q    Type
REMARK                         _______ _______ _______ _____ _____    ______ ____
ROOT
ATOM      1  O   HOH     1       4.261  18.845  22.520  0.00  0.00    +0.000 OA
ENDROOT
TORSDOF 0
REMARK  Name = ../refined-set-2016/2f80/2f80_pocket.pdb
REMARK  235 active torsions:
REMARK  status: ('A' for Active; 'I' for Inactive)
REMARK    1  A    between atoms: _1  and  _3
REMARK    2  A    between atoms: _3  and  _4
REMARK    3  A    between atoms: _3  and  _6
REMARK    4  A    between atoms: _6  and  _7
REMARK    5  A    between atoms: _7  and  _8
REMARK    6  A    between atoms: _8  and  _9
REMARK    7  A    between atoms: _18  and  _20
REMARK    8  A    between atoms: _20  and  _21
REMARK    9  A    between atoms: _20  and  _23
REMARK   10  A    between atoms: _23  and  _24
REMARK   11  A    between atoms: _27  and  _29
REMARK   12  A    between atoms: _29  and  _30
REMARK   13  A    between atoms: _29  and  _32
REMARK   14  A    between atoms: _32  and  _33
REMARK   15  A    between atoms: _36  and  _38
REMARK   16  A    between atoms: _38  and  _39
REMARK   17  A    between atoms: _38  and  _41
REMARK   18  A    between atoms: _41  and  _42
REMARK   19  A    between atoms: _45  and  _47
REMARK   20  A    between atoms: _47  and  _48
REMARK   21  A    between atoms: _47  and  _50
REMARK   22  A    between atoms: _50  and  _51
REMARK   23  A    between atoms: _54  and  _56
REMARK   24  A    between atoms: _56  and  _57
REMARK   25  A    between atoms: _59  and  _61
REMARK   26  A    between atoms: _61  and  _62
REMARK   27  A    between atoms: _65  and  _67
REMARK   28  A    between atoms: _67  and  _68
REMARK   29  A    between atoms: _67  and  _70
REMARK   30  A    between atoms: _70  and  _71
REMARK   31  A    between atoms: _74  and  _76
REMARK   32  A    between atoms: _76  and  _77
REMARK   33  A    between atoms: _76  and  _79
REMARK   34  A    between atoms: _79  and  _80
REMARK   35  A    between atoms: _85  and  _87
REMARK   36  A    between atoms: _87  and  _88
REMARK   37  A    between atoms: _87  and  _90
REMARK   38  A    between atoms: _90  and  _91
REMARK   39  A    between atoms: _94  and  _96
REMARK   40  A    between atoms: _96  and  _97
REMARK   41  A    between atoms: _96  and  _99
REMARK   42  A    between atoms: _102  and  _104
REMARK   43  A    between atoms: _104  and  _105
REMARK   44  A    between atoms: _104  and  _107
REMARK   45  A    between atoms: _107  and  _108
REMARK   46  A    between atoms: _111  and  _113
REMARK   47  A    between atoms: _113  and  _114
REMARK   48  A    between atoms: _113  and  _116
REMARK   49  A    between atoms: _117  and  _118
REMARK   50  A    between atoms: _118  and  _119
REMARK   51  A    between atoms: _119  and  _120
REMARK   52  A    between atoms: _124  and  _126
REMARK   53  A    between atoms: _126  and  _127
REMARK   54  A    between atoms: _126  and  _129
REMARK   55  A    between atoms: _129  and  _130
REMARK   56  A    between atoms: _130  and  _131
REMARK   57  A    between atoms: _133  and  _135
REMARK   58  A    between atoms: _135  and  _136
REMARK   59  A    between atoms: _135  and  _138
REMARK   60  A    between atoms: _138  and  _139
REMARK   61  A    between atoms: _142  and  _144
REMARK   62  A    between atoms: _144  and  _145
REMARK   63  A    between atoms: _147  and  _149
REMARK   64  A    between atoms: _149  and  _150
REMARK   65  A    between atoms: _152  and  _154
REMARK   66  A    between atoms: _154  and  _155
REMARK   67  A    between atoms: _154  and  _157
REMARK   68  A    between atoms: _157  and  _158
REMARK   69  A    between atoms: _161  and  _163
REMARK   70  A    between atoms: _163  and  _164
REMARK   71  A    between atoms: _166  and  _168
REMARK   72  A    between atoms: _168  and  _169
REMARK   73  A    between atoms: _171  and  _173
REMARK   74  A    between atoms: _173  and  _174
REMARK   75  A    between atoms: _173  and  _176
REMARK   76  A    between atoms: _176  and  _177
REMARK   77  A    between atoms: _183  and  _185
REMARK   78  A    between atoms: _185  and  _186
REMARK   79  A    between atoms: _185  and  _188
REMARK   80  A    between atoms: _188  and  _189
REMARK   81  A    between atoms: _192  and  _194
REMARK   82  A    between atoms: _194  and  _195
REMARK   83  A    between atoms: _194  and  _197
REMARK   84  A    between atoms: _200  and  _202
REMARK   85  A    between atoms: _202  and  _203
REMARK   86  A    between atoms: _202  and  _205
REMARK   87  A    between atoms: _205  and  _206
REMARK   88  A    between atoms: _209  and  _211
REMARK   89  A    between atoms: _211  and  _212
REMARK   90  A    between atoms: _211  and  _214
REMARK   91  A    between atoms: _214  and  _215
REMARK   92  A    between atoms: _219  and  _220
REMARK   93  A    between atoms: _225  and  _227
REMARK   94  A    between atoms: _227  and  _228
REMARK   95  A    between atoms: _227  and  _230
REMARK   96  A    between atoms: _233  and  _235
REMARK   97  A    between atoms: _235  and  _236
REMARK   98  A    between atoms: _235  and  _238
REMARK   99  A    between atoms: _238  and  _239
REMARK  100  A    between atoms: _244  and  _246
REMARK  101  A    between atoms: _246  and  _247
REMARK  102  A    between atoms: _246  and  _249
REMARK  103  A    between atoms: _249  and  _250
REMARK  104  A    between atoms: _253  and  _255
REMARK  105  A    between atoms: _255  and  _256
REMARK  106  A    between atoms: _255  and  _258
REMARK  107  A    between atoms: _258  and  _259
REMARK  108  A    between atoms: _262  and  _264
REMARK  109  A    between atoms: _264  and  _265
REMARK  110  A    between atoms: _267  and  _269
REMARK  111  A    between atoms: _269  and  _270
REMARK  112  A    between atoms: _269  and  _272
REMARK  113  A    between atoms: _272  and  _273
REMARK  114  A    between atoms: _273  and  _274
REMARK  115  A    between atoms: _274  and  _275
REMARK  116  A    between atoms: _284  and  _286
REMARK  117  A    between atoms: _286  and  _287
REMARK  118  A    between atoms: _286  and  _289
REMARK  119  A    between atoms: _289  and  _290
REMARK  120  A    between atoms: _295  and  _297
REMARK  121  A    between atoms: _297  and  _298
REMARK  122  A    between atoms: _297  and  _300
REMARK  123  A    between atoms: _300  and  _301
REMARK  124  A    between atoms: _301  and  _302
REMARK  125  A    between atoms: _302  and  _303
REMARK  126  A    between atoms: _312  and  _314
REMARK  127  A    between atoms: _314  and  _315
REMARK  128  A    between atoms: _314  and  _317
REMARK  129  A    between atoms: _317  and  _318
REMARK  130  A    between atoms: _321  and  _323
REMARK  131  A    between atoms: _323  and  _324
REMARK  132  A    between atoms: _323  and  _326
REMARK  133  A    between atoms: _326  and  _327
REMARK  134  A    between atoms: _330  and  _332
REMARK  135  A    between atoms: _332  and  _333
REMARK  136  A    between atoms: _332  and  _335
REMARK  137  A    between atoms: _335  and  _336
REMARK  138  A    between atoms: _339  and  _341
REMARK  139  A    between atoms: _341  and  _342
REMARK  140  A    between atoms: _341  and  _344
REMARK  141  A    between atoms: _344  and  _345
REMARK  142  A    between atoms: _348  and  _350
REMARK  143  A    between atoms: _350  and  _351
REMARK  144  A    between atoms: _353  and  _355
REMARK  145  A    between atoms: _355  and  _356
REMARK  146  A    between atoms: _359  and  _361
REMARK  147  A    between atoms: _361  and  _362
REMARK  148  A    between atoms: _361  and  _364
REMARK  149  A    between atoms: _364  and  _365
REMARK  150  A    between atoms: _368  and  _370
REMARK  151  A    between atoms: _370  and  _371
REMARK  152  A    between atoms: _370  and  _373
REMARK  153  A    between atoms: _373  and  _374
REMARK  154  A    between atoms: _379  and  _381
REMARK  155  A    between atoms: _381  and  _382
REMARK  156  A    between atoms: _381  and  _384
REMARK  157  A    between atoms: _384  and  _385
REMARK  158  A    between atoms: _388  and  _390
REMARK  159  A    between atoms: _390  and  _391
REMARK  160  A    between atoms: _390  and  _393
REMARK  161  A    between atoms: _396  and  _398
REMARK  162  A    between atoms: _398  and  _399
REMARK  163  A    between atoms: _398  and  _401
REMARK  164  A    between atoms: _401  and  _402
REMARK  165  A    between atoms: _402  and  _403
REMARK  166  A    between atoms: _403  and  _404
REMARK  167  A    between atoms: _404  and  _405
REMARK  168  A    between atoms: _409  and  _411
REMARK  169  A    between atoms: _411  and  _412
REMARK  170  A    between atoms: _411  and  _414
REMARK  171  A    between atoms: _414  and  _415
REMARK  172  A    between atoms: _415  and  _416
REMARK  173  A    between atoms: _418  and  _420
REMARK  174  A    between atoms: _420  and  _421
REMARK  175  A    between atoms: _420  and  _423
REMARK  176  A    between atoms: _423  and  _424
REMARK  177  A    between atoms: _427  and  _429
REMARK  178  A    between atoms: _429  and  _430
REMARK  179  A    between atoms: _432  and  _434
REMARK  180  A    between atoms: _434  and  _435
REMARK  181  A    between atoms: _437  and  _439
REMARK  182  A    between atoms: _439  and  _440
REMARK  183  A    between atoms: _439  and  _442
REMARK  184  A    between atoms: _442  and  _443
REMARK  185  A    between atoms: _446  and  _448
REMARK  186  A    between atoms: _448  and  _449
REMARK  187  A    between atoms: _451  and  _453
REMARK  188  A    between atoms: _453  and  _454
REMARK  189  A    between atoms: _456  and  _458
REMARK  190  A    between atoms: _458  and  _459
REMARK  191  A    between atoms: _458  and  _461
REMARK  192  A    between atoms: _461  and  _462
REMARK  193  A    between atoms: _468  and  _470
REMARK  194  A    between atoms: _470  and  _471
REMARK  195  A    between atoms: _470  and  _473
REMARK  196  A    between atoms: _473  and  _474
REMARK  197  A    between atoms: _477  and  _479
REMARK  198  A    between atoms: _479  and  _480
REMARK  199  A    between atoms: _479  and  _482
REMARK  200  A    between atoms: _485  and  _487
REMARK  201  A    between atoms: _487  and  _488
REMARK  202  A    between atoms: _487  and  _490
REMARK  203  A    between atoms: _490  and  _491
REMARK  204  A    between atoms: _494  and  _496
REMARK  205  A    between atoms: _496  and  _497
REMARK  206  A    between atoms: _496  and  _499
REMARK  207  A    between atoms: _499  and  _500
REMARK  208  A    between atoms: _504  and  _505
REMARK  209  A    between atoms: _510  and  _512
REMARK  210  A    between atoms: _512  and  _513
REMARK  211  A    between atoms: _512  and  _515
REMARK  212  A    between atoms: _518  and  _520
REMARK  213  A    between atoms: _520  and  _521
REMARK  214  A    between atoms: _520  and  _523
REMARK  215  A    between atoms: _523  and  _524
REMARK  216  A    between atoms: _529  and  _531
REMARK  217  A    between atoms: _531  and  _532
REMARK  218  A    between atoms: _531  and  _534
REMARK  219  A    between atoms: _534  and  _535
REMARK  220  A    between atoms: _538  and  _540
REMARK  221  A    between atoms: _540  and  _541
REMARK  222  A    between atoms: _540  and  _543
REMARK  223  A    between atoms: _543  and  _544
REMARK  224  A    between atoms: _547  and  _549
REMARK  225  A    between atoms: _549  and  _550
REMARK  226  A    between atoms: _552  and  _554
REMARK  227  A    between atoms: _554  and  _555
REMARK  228  A    between atoms: _554  and  _557
REMARK  229  A    between atoms: _557  and  _558
REMARK  230  A    between atoms: _558  and  _559
REMARK  231  A    between atoms: _559  and  _560
REMARK  232  A    between atoms: _569  and  _571
REMARK  233  A    between atoms: _571  and  _572
REMARK  234  A    between atoms: _571  and  _574
REMARK  235  A    between atoms: _574  and  _575
REMARK                            x       y       z     vdW  Elec       q    Type
REMARK                         _______ _______ _______ _____ _____    ______ ____
ROOT
ATOM      1  O   HOH     1      18.098  20.615  16.440  0.00  0.00    +0.000 OA
ENDROOT
TORSDOF 0
REMARK  Name = ../refined-set-2016/2f80/2f80_pocket.pdb
REMARK  235 active torsions:
REMARK  status: ('A' for Active; 'I' for Inactive)
REMARK    1  A    between atoms: _1  and  _3
REMARK    2  A    between atoms: _3  and  _4
REMARK    3  A    between atoms: _3  and  _6
REMARK    4  A    between atoms: _6  and  _7
REMARK    5  A    between atoms: _7  and  _8
REMARK    6  A    between atoms: _8  and  _9
REMARK    7  A    between atoms: _18  and  _20
REMARK    8  A    between atoms: _20  and  _21
REMARK    9  A    between atoms: _20  and  _23
REMARK   10  A    between atoms: _23  and  _24
REMARK   11  A    between atoms: _27  and  _29
REMARK   12  A    between atoms: _29  and  _30
REMARK   13  A    between atoms: _29  and  _32
REMARK   14  A    between atoms: _32  and  _33
REMARK   15  A    between atoms: _36  and  _38
REMARK   16  A    between atoms: _38  and  _39
REMARK   17  A    between atoms: _38  and  _41
REMARK   18  A    between atoms: _41  and  _42
REMARK   19  A    between atoms: _45  and  _47
REMARK   20  A    between atoms: _47  and  _48
REMARK   21  A    between atoms: _47  and  _50
REMARK   22  A    between atoms: _50  and  _51
REMARK   23  A    between atoms: _54  and  _56
REMARK   24  A    between atoms: _56  and  _57
REMARK   25  A    between atoms: _59  and  _61
REMARK   26  A    between atoms: _61  and  _62
REMARK   27  A    between atoms: _65  and  _67
REMARK   28  A    between atoms: _67  and  _68
REMARK   29  A    between atoms: _67  and  _70
REMARK   30  A    between atoms: _70  and  _71
REMARK   31  A    between atoms: _74  and  _76
REMARK   32  A    between atoms: _76  and  _77
REMARK   33  A    between atoms: _76  and  _79
REMARK   34  A    between atoms: _79  and  _80
REMARK   35  A    between atoms: _85  and  _87
REMARK   36  A    between atoms: _87  and  _88
REMARK   37  A    between atoms: _87  and  _90
REMARK   38  A    between atoms: _90  and  _91
REMARK   39  A    between atoms: _94  and  _96
REMARK   40  A    between atoms: _96  and  _97
REMARK   41  A    between atoms: _96  and  _99
REMARK   42  A    between atoms: _102  and  _104
REMARK   43  A    between atoms: _104  and  _105
REMARK   44  A    between atoms: _104  and  _107
REMARK   45  A    between atoms: _107  and  _108
REMARK   46  A    between atoms: _111  and  _113
REMARK   47  A    between atoms: _113  and  _114
REMARK   48  A    between atoms: _113  and  _116
REMARK   49  A    between atoms: _117  and  _118
REMARK   50  A    between atoms: _118  and  _119
REMARK   51  A    between atoms: _119  and  _120
REMARK   52  A    between atoms: _124  and  _126
REMARK   53  A    between atoms: _126  and  _127
REMARK   54  A    between atoms: _126  and  _129
REMARK   55  A    between atoms: _129  and  _130
REMARK   56  A    between atoms: _130  and  _131
REMARK   57  A    between atoms: _133  and  _135
REMARK   58  A    between atoms: _135  and  _136
REMARK   59  A    between atoms: _135  and  _138
REMARK   60  A    between atoms: _138  and  _139
REMARK   61  A    between atoms: _142  and  _144
REMARK   62  A    between atoms: _144  and  _145
REMARK   63  A    between atoms: _147  and  _149
REMARK   64  A    between atoms: _149  and  _150
REMARK   65  A    between atoms: _152  and  _154
REMARK   66  A    between atoms: _154  and  _155
REMARK   67  A    between atoms: _154  and  _157
REMARK   68  A    between atoms: _157  and  _158
REMARK   69  A    between atoms: _161  and  _163
REMARK   70  A    between atoms: _163  and  _164
REMARK   71  A    between atoms: _166  and  _168
REMARK   72  A    between atoms: _168  and  _169
REMARK   73  A    between atoms: _171  and  _173
REMARK   74  A    between atoms: _173  and  _174
REMARK   75  A    between atoms: _173  and  _176
REMARK   76  A    between atoms: _176  and  _177
REMARK   77  A    between atoms: _183  and  _185
REMARK   78  A    between atoms: _185  and  _186
REMARK   79  A    between atoms: _185  and  _188
REMARK   80  A    between atoms: _188  and  _189
REMARK   81  A    between atoms: _192  and  _194
REMARK   82  A    between atoms: _194  and  _195
REMARK   83  A    between atoms: _194  and  _197
REMARK   84  A    between atoms: _200  and  _202
REMARK   85  A    between atoms: _202  and  _203
REMARK   86  A    between atoms: _202  and  _205
REMARK   87  A    between atoms: _205  and  _206
REMARK   88  A    between atoms: _209  and  _211
REMARK   89  A    between atoms: _211  and  _212
REMARK   90  A    between atoms: _211  and  _214
REMARK   91  A    between atoms: _214  and  _215
REMARK   92  A    between atoms: _219  and  _220
REMARK   93  A    between atoms: _225  and  _227
REMARK   94  A    between atoms: _227  and  _228
REMARK   95  A    between atoms: _227  and  _230
REMARK   96  A    between atoms: _233  and  _235
REMARK   97  A    between atoms: _235  and  _236
REMARK   98  A    between atoms: _235  and  _238
REMARK   99  A    between atoms: _238  and  _239
REMARK  100  A    between atoms: _244  and  _246
REMARK  101  A    between atoms: _246  and  _247
REMARK  102  A    between atoms: _246  and  _249
REMARK  103  A    between atoms: _249  and  _250
REMARK  104  A    between atoms: _253  and  _255
REMARK  105  A    between atoms: _255  and  _256
REMARK  106  A    between atoms: _255  and  _258
REMARK  107  A    between atoms: _258  and  _259
REMARK  108  A    between atoms: _262  and  _264
REMARK  109  A    between atoms: _264  and  _265
REMARK  110  A    between atoms: _267  and  _269
REMARK  111  A    between atoms: _269  and  _270
REMARK  112  A    between atoms: _269  and  _272
REMARK  113  A    between atoms: _272  and  _273
REMARK  114  A    between atoms: _273  and  _274
REMARK  115  A    between atoms: _274  and  _275
REMARK  116  A    between atoms: _284  and  _286
REMARK  117  A    between atoms: _286  and  _287
REMARK  118  A    between atoms: _286  and  _289
REMARK  119  A    between atoms: _289  and  _290
REMARK  120  A    between atoms: _295  and  _297
REMARK  121  A    between atoms: _297  and  _298
REMARK  122  A    between atoms: _297  and  _300
REMARK  123  A    between atoms: _300  and  _301
REMARK  124  A    between atoms: _301  and  _302
REMARK  125  A    between atoms: _302  and  _303
REMARK  126  A    between atoms: _312  and  _314
REMARK  127  A    between atoms: _314  and  _315
REMARK  128  A    between atoms: _314  and  _317
REMARK  129  A    between atoms: _317  and  _318
REMARK  130  A    between atoms: _321  and  _323
REMARK  131  A    between atoms: _323  and  _324
REMARK  132  A    between atoms: _323  and  _326
REMARK  133  A    between atoms: _326  and  _327
REMARK  134  A    between atoms: _330  and  _332
REMARK  135  A    between atoms: _332  and  _333
REMARK  136  A    between atoms: _332  and  _335
REMARK  137  A    between atoms: _335  and  _336
REMARK  138  A    between atoms: _339  and  _341
REMARK  139  A    between atoms: _341  and  _342
REMARK  140  A    between atoms: _341  and  _344
REMARK  141  A    between atoms: _344  and  _345
REMARK  142  A    between atoms: _348  and  _350
REMARK  143  A    between atoms: _350  and  _351
REMARK  144  A    between atoms: _353  and  _355
REMARK  145  A    between atoms: _355  and  _356
REMARK  146  A    between atoms: _359  and  _361
REMARK  147  A    between atoms: _361  and  _362
REMARK  148  A    between atoms: _361  and  _364
REMARK  149  A    between atoms: _364  and  _365
REMARK  150  A    between atoms: _368  and  _370
REMARK  151  A    between atoms: _370  and  _371
REMARK  152  A    between atoms: _370  and  _373
REMARK  153  A    between atoms: _373  and  _374
REMARK  154  A    between atoms: _379  and  _381
REMARK  155  A    between atoms: _381  and  _382
REMARK  156  A    between atoms: _381  and  _384
REMARK  157  A    between atoms: _384  and  _385
REMARK  158  A    between atoms: _388  and  _390
REMARK  159  A    between atoms: _390  and  _391
REMARK  160  A    between atoms: _390  and  _393
REMARK  161  A    between atoms: _396  and  _398
REMARK  162  A    between atoms: _398  and  _399
REMARK  163  A    between atoms: _398  and  _401
REMARK  164  A    between atoms: _401  and  _402
REMARK  165  A    between atoms: _402  and  _403
REMARK  166  A    between atoms: _403  and  _404
REMARK  167  A    between atoms: _404  and  _405
REMARK  168  A    between atoms: _409  and  _411
REMARK  169  A    between atoms: _411  and  _412
REMARK  170  A    between atoms: _411  and  _414
REMARK  171  A    between atoms: _414  and  _415
REMARK  172  A    between atoms: _415  and  _416
REMARK  173  A    between atoms: _418  and  _420
REMARK  174  A    between atoms: _420  and  _421
REMARK  175  A    between atoms: _420  and  _423
REMARK  176  A    between atoms: _423  and  _424
REMARK  177  A    between atoms: _427  and  _429
REMARK  178  A    between atoms: _429  and  _430
REMARK  179  A    between atoms: _432  and  _434
REMARK  180  A    between atoms: _434  and  _435
REMARK  181  A    between atoms: _437  and  _439
REMARK  182  A    between atoms: _439  and  _440
REMARK  183  A    between atoms: _439  and  _442
REMARK  184  A    between atoms: _442  and  _443
REMARK  185  A    between atoms: _446  and  _448
REMARK  186  A    between atoms: _448  and  _449
REMARK  187  A    between atoms: _451  and  _453
REMARK  188  A    between atoms: _453  and  _454
REMARK  189  A    between atoms: _456  and  _458
REMARK  190  A    between atoms: _458  and  _459
REMARK  191  A    between atoms: _458  and  _461
REMARK  192  A    between atoms: _461  and  _462
REMARK  193  A    between atoms: _468  and  _470
REMARK  194  A    between atoms: _470  and  _471
REMARK  195  A    between atoms: _470  and  _473
REMARK  196  A    between atoms: _473  and  _474
REMARK  197  A    between atoms: _477  and  _479
REMARK  198  A    between atoms: _479  and  _480
REMARK  199  A    between atoms: _479  and  _482
REMARK  200  A    between atoms: _485  and  _487
REMARK  201  A    between atoms: _487  and  _488
REMARK  202  A    between atoms: _487  and  _490
REMARK  203  A    between atoms: _490  and  _491
REMARK  204  A    between atoms: _494  and  _496
REMARK  205  A    between atoms: _496  and  _497
REMARK  206  A    between atoms: _496  and  _499
REMARK  207  A    between atoms: _499  and  _500
REMARK  208  A    between atoms: _504  and  _505
REMARK  209  A    between atoms: _510  and  _512
REMARK  210  A    between atoms: _512  and  _513
REMARK  211  A    between atoms: _512  and  _515
REMARK  212  A    between atoms: _518  and  _520
REMARK  213  A    between atoms: _520  and  _521
REMARK  214  A    between atoms: _520  and  _523
REMARK  215  A    between atoms: _523  and  _524
REMARK  216  A    between atoms: _529  and  _531
REMARK  217  A    between atoms: _531  and  _532
REMARK  218  A    between atoms: _531  and  _534
REMARK  219  A    between atoms: _534  and  _535
REMARK  220  A    between atoms: _538  and  _540
REMARK  221  A    between atoms: _540  and  _541
REMARK  222  A    between atoms: _540  and  _543
REMARK  223  A    between atoms: _543  and  _544
REMARK  224  A    between atoms: _547  and  _549
REMARK  225  A    between atoms: _549  and  _550
REMARK  226  A    between atoms: _552  and  _554
REMARK  227  A    between atoms: _554  and  _555
REMARK  228  A    between atoms: _554  and  _557
REMARK  229  A    between atoms: _557  and  _558
REMARK  230  A    between atoms: _558  and  _559
REMARK  231  A    between atoms: _559  and  _560
REMARK  232  A    between atoms: _569  and  _571
REMARK  233  A    between atoms: _571  and  _572
REMARK  234  A    between atoms: _571  and  _574
REMARK  235  A    between atoms: _574  and  _575
REMARK                            x       y       z     vdW  Elec       q    Type
REMARK                         _______ _______ _______ _____ _____    ______ ____
ROOT
ATOM      1  O   HOH     1      11.476  15.754  13.704  0.00  0.00    +0.000 OA
ENDROOT
TORSDOF 0
REMARK  Name = ../refined-set-2016/2f80/2f80_pocket.pdb
REMARK  235 active torsions:
REMARK  status: ('A' for Active; 'I' for Inactive)
REMARK    1  A    between atoms: _1  and  _3
REMARK    2  A    between atoms: _3  and  _4
REMARK    3  A    between atoms: _3  and  _6
REMARK    4  A    between atoms: _6  and  _7
REMARK    5  A    between atoms: _7  and  _8
REMARK    6  A    between atoms: _8  and  _9
REMARK    7  A    between atoms: _18  and  _20
REMARK    8  A    between atoms: _20  and  _21
REMARK    9  A    between atoms: _20  and  _23
REMARK   10  A    between atoms: _23  and  _24
REMARK   11  A    between atoms: _27  and  _29
REMARK   12  A    between atoms: _29  and  _30
REMARK   13  A    between atoms: _29  and  _32
REMARK   14  A    between atoms: _32  and  _33
REMARK   15  A    between atoms: _36  and  _38
REMARK   16  A    between atoms: _38  and  _39
REMARK   17  A    between atoms: _38  and  _41
REMARK   18  A    between atoms: _41  and  _42
REMARK   19  A    between atoms: _45  and  _47
REMARK   20  A    between atoms: _47  and  _48
REMARK   21  A    between atoms: _47  and  _50
REMARK   22  A    between atoms: _50  and  _51
REMARK   23  A    between atoms: _54  and  _56
REMARK   24  A    between atoms: _56  and  _57
REMARK   25  A    between atoms: _59  and  _61
REMARK   26  A    between atoms: _61  and  _62
REMARK   27  A    between atoms: _65  and  _67
REMARK   28  A    between atoms: _67  and  _68
REMARK   29  A    between atoms: _67  and  _70
REMARK   30  A    between atoms: _70  and  _71
REMARK   31  A    between atoms: _74  and  _76
REMARK   32  A    between atoms: _76  and  _77
REMARK   33  A    between atoms: _76  and  _79
REMARK   34  A    between atoms: _79  and  _80
REMARK   35  A    between atoms: _85  and  _87
REMARK   36  A    between atoms: _87  and  _88
REMARK   37  A    between atoms: _87  and  _90
REMARK   38  A    between atoms: _90  and  _91
REMARK   39  A    between atoms: _94  and  _96
REMARK   40  A    between atoms: _96  and  _97
REMARK   41  A    between atoms: _96  and  _99
REMARK   42  A    between atoms: _102  and  _104
REMARK   43  A    between atoms: _104  and  _105
REMARK   44  A    between atoms: _104  and  _107
REMARK   45  A    between atoms: _107  and  _108
REMARK   46  A    between atoms: _111  and  _113
REMARK   47  A    between atoms: _113  and  _114
REMARK   48  A    between atoms: _113  and  _116
REMARK   49  A    between atoms: _117  and  _118
REMARK   50  A    between atoms: _118  and  _119
REMARK   51  A    between atoms: _119  and  _120
REMARK   52  A    between atoms: _124  and  _126
REMARK   53  A    between atoms: _126  and  _127
REMARK   54  A    between atoms: _126  and  _129
REMARK   55  A    between atoms: _129  and  _130
REMARK   56  A    between atoms: _130  and  _131
REMARK   57  A    between atoms: _133  and  _135
REMARK   58  A    between atoms: _135  and  _136
REMARK   59  A    between atoms: _135  and  _138
REMARK   60  A    between atoms: _138  and  _139
REMARK   61  A    between atoms: _142  and  _144
REMARK   62  A    between atoms: _144  and  _145
REMARK   63  A    between atoms: _147  and  _149
REMARK   64  A    between atoms: _149  and  _150
REMARK   65  A    between atoms: _152  and  _154
REMARK   66  A    between atoms: _154  and  _155
REMARK   67  A    between atoms: _154  and  _157
REMARK   68  A    between atoms: _157  and  _158
REMARK   69  A    between atoms: _161  and  _163
REMARK   70  A    between atoms: _163  and  _164
REMARK   71  A    between atoms: _166  and  _168
REMARK   72  A    between atoms: _168  and  _169
REMARK   73  A    between atoms: _171  and  _173
REMARK   74  A    between atoms: _173  and  _174
REMARK   75  A    between atoms: _173  and  _176
REMARK   76  A    between atoms: _176  and  _177
REMARK   77  A    between atoms: _183  and  _185
REMARK   78  A    between atoms: _185  and  _186
REMARK   79  A    between atoms: _185  and  _188
REMARK   80  A    between atoms: _188  and  _189
REMARK   81  A    between atoms: _192  and  _194
REMARK   82  A    between atoms: _194  and  _195
REMARK   83  A    between atoms: _194  and  _197
REMARK   84  A    between atoms: _200  and  _202
REMARK   85  A    between atoms: _202  and  _203
REMARK   86  A    between atoms: _202  and  _205
REMARK   87  A    between atoms: _205  and  _206
REMARK   88  A    between atoms: _209  and  _211
REMARK   89  A    between atoms: _211  and  _212
REMARK   90  A    between atoms: _211  and  _214
REMARK   91  A    between atoms: _214  and  _215
REMARK   92  A    between atoms: _219  and  _220
REMARK   93  A    between atoms: _225  and  _227
REMARK   94  A    between atoms: _227  and  _228
REMARK   95  A    between atoms: _227  and  _230
REMARK   96  A    between atoms: _233  and  _235
REMARK   97  A    between atoms: _235  and  _236
REMARK   98  A    between atoms: _235  and  _238
REMARK   99  A    between atoms: _238  and  _239
REMARK  100  A    between atoms: _244  and  _246
REMARK  101  A    between atoms: _246  and  _247
REMARK  102  A    between atoms: _246  and  _249
REMARK  103  A    between atoms: _249  and  _250
REMARK  104  A    between atoms: _253  and  _255
REMARK  105  A    between atoms: _255  and  _256
REMARK  106  A    between atoms: _255  and  _258
REMARK  107  A    between atoms: _258  and  _259
REMARK  108  A    between atoms: _262  and  _264
REMARK  109  A    between atoms: _264  and  _265
REMARK  110  A    between atoms: _267  and  _269
REMARK  111  A    between atoms: _269  and  _270
REMARK  112  A    between atoms: _269  and  _272
REMARK  113  A    between atoms: _272  and  _273
REMARK  114  A    between atoms: _273  and  _274
REMARK  115  A    between atoms: _274  and  _275
REMARK  116  A    between atoms: _284  and  _286
REMARK  117  A    between atoms: _286  and  _287
REMARK  118  A    between atoms: _286  and  _289
REMARK  119  A    between atoms: _289  and  _290
REMARK  120  A    between atoms: _295  and  _297
REMARK  121  A    between atoms: _297  and  _298
REMARK  122  A    between atoms: _297  and  _300
REMARK  123  A    between atoms: _300  and  _301
REMARK  124  A    between atoms: _301  and  _302
REMARK  125  A    between atoms: _302  and  _303
REMARK  126  A    between atoms: _312  and  _314
REMARK  127  A    between atoms: _314  and  _315
REMARK  128  A    between atoms: _314  and  _317
REMARK  129  A    between atoms: _317  and  _318
REMARK  130  A    between atoms: _321  and  _323
REMARK  131  A    between atoms: _323  and  _324
REMARK  132  A    between atoms: _323  and  _326
REMARK  133  A    between atoms: _326  and  _327
REMARK  134  A    between atoms: _330  and  _332
REMARK  135  A    between atoms: _332  and  _333
REMARK  136  A    between atoms: _332  and  _335
REMARK  137  A    between atoms: _335  and  _336
REMARK  138  A    between atoms: _339  and  _341
REMARK  139  A    between atoms: _341  and  _342
REMARK  140  A    between atoms: _341  and  _344
REMARK  141  A    between atoms: _344  and  _345
REMARK  142  A    between atoms: _348  and  _350
REMARK  143  A    between atoms: _350  and  _351
REMARK  144  A    between atoms: _353  and  _355
REMARK  145  A    between atoms: _355  and  _356
REMARK  146  A    between atoms: _359  and  _361
REMARK  147  A    between atoms: _361  and  _362
REMARK  148  A    between atoms: _361  and  _364
REMARK  149  A    between atoms: _364  and  _365
REMARK  150  A    between atoms: _368  and  _370
REMARK  151  A    between atoms: _370  and  _371
REMARK  152  A    between atoms: _370  and  _373
REMARK  153  A    between atoms: _373  and  _374
REMARK  154  A    between atoms: _379  and  _381
REMARK  155  A    between atoms: _381  and  _382
REMARK  156  A    between atoms: _381  and  _384
REMARK  157  A    between atoms: _384  and  _385
REMARK  158  A    between atoms: _388  and  _390
REMARK  159  A    between atoms: _390  and  _391
REMARK  160  A    between atoms: _390  and  _393
REMARK  161  A    between atoms: _396  and  _398
REMARK  162  A    between atoms: _398  and  _399
REMARK  163  A    between atoms: _398  and  _401
REMARK  164  A    between atoms: _401  and  _402
REMARK  165  A    between atoms: _402  and  _403
REMARK  166  A    between atoms: _403  and  _404
REMARK  167  A    between atoms: _404  and  _405
REMARK  168  A    between atoms: _409  and  _411
REMARK  169  A    between atoms: _411  and  _412
REMARK  170  A    between atoms: _411  and  _414
REMARK  171  A    between atoms: _414  and  _415
REMARK  172  A    between atoms: _415  and  _416
REMARK  173  A    between atoms: _418  and  _420
REMARK  174  A    between atoms: _420  and  _421
REMARK  175  A    between atoms: _420  and  _423
REMARK  176  A    between atoms: _423  and  _424
REMARK  177  A    between atoms: _427  and  _429
REMARK  178  A    between atoms: _429  and  _430
REMARK  179  A    between atoms: _432  and  _434
REMARK  180  A    between atoms: _434  and  _435
REMARK  181  A    between atoms: _437  and  _439
REMARK  182  A    between atoms: _439  and  _440
REMARK  183  A    between atoms: _439  and  _442
REMARK  184  A    between atoms: _442  and  _443
REMARK  185  A    between atoms: _446  and  _448
REMARK  186  A    between atoms: _448  and  _449
REMARK  187  A    between atoms: _451  and  _453
REMARK  188  A    between atoms: _453  and  _454
REMARK  189  A    between atoms: _456  and  _458
REMARK  190  A    between atoms: _458  and  _459
REMARK  191  A    between atoms: _458  and  _461
REMARK  192  A    between atoms: _461  and  _462
REMARK  193  A    between atoms: _468  and  _470
REMARK  194  A    between atoms: _470  and  _471
REMARK  195  A    between atoms: _470  and  _473
REMARK  196  A    between atoms: _473  and  _474
REMARK  197  A    between atoms: _477  and  _479
REMARK  198  A    between atoms: _479  and  _480
REMARK  199  A    between atoms: _479  and  _482
REMARK  200  A    between atoms: _485  and  _487
REMARK  201  A    between atoms: _487  and  _488
REMARK  202  A    between atoms: _487  and  _490
REMARK  203  A    between atoms: _490  and  _491
REMARK  204  A    between atoms: _494  and  _496
REMARK  205  A    between atoms: _496  and  _497
REMARK  206  A    between atoms: _496  and  _499
REMARK  207  A    between atoms: _499  and  _500
REMARK  208  A    between atoms: _504  and  _505
REMARK  209  A    between atoms: _510  and  _512
REMARK  210  A    between atoms: _512  and  _513
REMARK  211  A    between atoms: _512  and  _515
REMARK  212  A    between atoms: _518  and  _520
REMARK  213  A    between atoms: _520  and  _521
REMARK  214  A    between atoms: _520  and  _523
REMARK  215  A    between atoms: _523  and  _524
REMARK  216  A    between atoms: _529  and  _531
REMARK  217  A    between atoms: _531  and  _532
REMARK  218  A    between atoms: _531  and  _534
REMARK  219  A    between atoms: _534  and  _535
REMARK  220  A    between atoms: _538  and  _540
REMARK  221  A    between atoms: _540  and  _541
REMARK  222  A    between atoms: _540  and  _543
REMARK  223  A    between atoms: _543  and  _544
REMARK  224  A    between atoms: _547  and  _549
REMARK  225  A    between atoms: _549  and  _550
REMARK  226  A    between atoms: _552  and  _554
REMARK  227  A    between atoms: _554  and  _555
REMARK  228  A    between atoms: _554  and  _557
REMARK  229  A    between atoms: _557  and  _558
REMARK  230  A    between atoms: _558  and  _559
REMARK  231  A    between atoms: _559  and  _560
REMARK  232  A    between atoms: _569  and  _571
REMARK  233  A    between atoms: _571  and  _572
REMARK  234  A    between atoms: _571  and  _574
REMARK  235  A    between atoms: _574  and  _575
REMARK                            x       y       z     vdW  Elec       q    Type
REMARK                         _______ _______ _______ _____ _____    ______ ____
ROOT
ATOM      1  O   HOH     1      26.797  22.529  23.788  0.00  0.00    +0.000 OA
ENDROOT
TORSDOF 0
REMARK  Name = ../refined-set-2016/2f80/2f80_pocket.pdb
REMARK  235 active torsions:
REMARK  status: ('A' for Active; 'I' for Inactive)
REMARK    1  A    between atoms: _1  and  _3
REMARK    2  A    between atoms: _3  and  _4
REMARK    3  A    between atoms: _3  and  _6
REMARK    4  A    between atoms: _6  and  _7
REMARK    5  A    between atoms: _7  and  _8
REMARK    6  A    between atoms: _8  and  _9
REMARK    7  A    between atoms: _18  and  _20
REMARK    8  A    between atoms: _20  and  _21
REMARK    9  A    between atoms: _20  and  _23
REMARK   10  A    between atoms: _23  and  _24
REMARK   11  A    between atoms: _27  and  _29
REMARK   12  A    between atoms: _29  and  _30
REMARK   13  A    between atoms: _29  and  _32
REMARK   14  A    between atoms: _32  and  _33
REMARK   15  A    between atoms: _36  and  _38
REMARK   16  A    between atoms: _38  and  _39
REMARK   17  A    between atoms: _38  and  _41
REMARK   18  A    between atoms: _41  and  _42
REMARK   19  A    between atoms: _45  and  _47
REMARK   20  A    between atoms: _47  and  _48
REMARK   21  A    between atoms: _47  and  _50
REMARK   22  A    between atoms: _50  and  _51
REMARK   23  A    between atoms: _54  and  _56
REMARK   24  A    between atoms: _56  and  _57
REMARK   25  A    between atoms: _59  and  _61
REMARK   26  A    between atoms: _61  and  _62
REMARK   27  A    between atoms: _65  and  _67
REMARK   28  A    between atoms: _67  and  _68
REMARK   29  A    between atoms: _67  and  _70
REMARK   30  A    between atoms: _70  and  _71
REMARK   31  A    between atoms: _74  and  _76
REMARK   32  A    between atoms: _76  and  _77
REMARK   33  A    between atoms: _76  and  _79
REMARK   34  A    between atoms: _79  and  _80
REMARK   35  A    between atoms: _85  and  _87
REMARK   36  A    between atoms: _87  and  _88
REMARK   37  A    between atoms: _87  and  _90
REMARK   38  A    between atoms: _90  and  _91
REMARK   39  A    between atoms: _94  and  _96
REMARK   40  A    between atoms: _96  and  _97
REMARK   41  A    between atoms: _96  and  _99
REMARK   42  A    between atoms: _102  and  _104
REMARK   43  A    between atoms: _104  and  _105
REMARK   44  A    between atoms: _104  and  _107
REMARK   45  A    between atoms: _107  and  _108
REMARK   46  A    between atoms: _111  and  _113
REMARK   47  A    between atoms: _113  and  _114
REMARK   48  A    between atoms: _113  and  _116
REMARK   49  A    between atoms: _117  and  _118
REMARK   50  A    between atoms: _118  and  _119
REMARK   51  A    between atoms: _119  and  _120
REMARK   52  A    between atoms: _124  and  _126
REMARK   53  A    between atoms: _126  and  _127
REMARK   54  A    between atoms: _126  and  _129
REMARK   55  A    between atoms: _129  and  _130
REMARK   56  A    between atoms: _130  and  _131
REMARK   57  A    between atoms: _133  and  _135
REMARK   58  A    between atoms: _135  and  _136
REMARK   59  A    between atoms: _135  and  _138
REMARK   60  A    between atoms: _138  and  _139
REMARK   61  A    between atoms: _142  and  _144
REMARK   62  A    between atoms: _144  and  _145
REMARK   63  A    between atoms: _147  and  _149
REMARK   64  A    between atoms: _149  and  _150
REMARK   65  A    between atoms: _152  and  _154
REMARK   66  A    between atoms: _154  and  _155
REMARK   67  A    between atoms: _154  and  _157
REMARK   68  A    between atoms: _157  and  _158
REMARK   69  A    between atoms: _161  and  _163
REMARK   70  A    between atoms: _163  and  _164
REMARK   71  A    between atoms: _166  and  _168
REMARK   72  A    between atoms: _168  and  _169
REMARK   73  A    between atoms: _171  and  _173
REMARK   74  A    between atoms: _173  and  _174
REMARK   75  A    between atoms: _173  and  _176
REMARK   76  A    between atoms: _176  and  _177
REMARK   77  A    between atoms: _183  and  _185
REMARK   78  A    between atoms: _185  and  _186
REMARK   79  A    between atoms: _185  and  _188
REMARK   80  A    between atoms: _188  and  _189
REMARK   81  A    between atoms: _192  and  _194
REMARK   82  A    between atoms: _194  and  _195
REMARK   83  A    between atoms: _194  and  _197
REMARK   84  A    between atoms: _200  and  _202
REMARK   85  A    between atoms: _202  and  _203
REMARK   86  A    between atoms: _202  and  _205
REMARK   87  A    between atoms: _205  and  _206
REMARK   88  A    between atoms: _209  and  _211
REMARK   89  A    between atoms: _211  and  _212
REMARK   90  A    between atoms: _211  and  _214
REMARK   91  A    between atoms: _214  and  _215
REMARK   92  A    between atoms: _219  and  _220
REMARK   93  A    between atoms: _225  and  _227
REMARK   94  A    between atoms: _227  and  _228
REMARK   95  A    between atoms: _227  and  _230
REMARK   96  A    between atoms: _233  and  _235
REMARK   97  A    between atoms: _235  and  _236
REMARK   98  A    between atoms: _235  and  _238
REMARK   99  A    between atoms: _238  and  _239
REMARK  100  A    between atoms: _244  and  _246
REMARK  101  A    between atoms: _246  and  _247
REMARK  102  A    between atoms: _246  and  _249
REMARK  103  A    between atoms: _249  and  _250
REMARK  104  A    between atoms: _253  and  _255
REMARK  105  A    between atoms: _255  and  _256
REMARK  106  A    between atoms: _255  and  _258
REMARK  107  A    between atoms: _258  and  _259
REMARK  108  A    between atoms: _262  and  _264
REMARK  109  A    between atoms: _264  and  _265
REMARK  110  A    between atoms: _267  and  _269
REMARK  111  A    between atoms: _269  and  _270
REMARK  112  A    between atoms: _269  and  _272
REMARK  113  A    between atoms: _272  and  _273
REMARK  114  A    between atoms: _273  and  _274
REMARK  115  A    between atoms: _274  and  _275
REMARK  116  A    between atoms: _284  and  _286
REMARK  117  A    between atoms: _286  and  _287
REMARK  118  A    between atoms: _286  and  _289
REMARK  119  A    between atoms: _289  and  _290
REMARK  120  A    between atoms: _295  and  _297
REMARK  121  A    between atoms: _297  and  _298
REMARK  122  A    between atoms: _297  and  _300
REMARK  123  A    between atoms: _300  and  _301
REMARK  124  A    between atoms: _301  and  _302
REMARK  125  A    between atoms: _302  and  _303
REMARK  126  A    between atoms: _312  and  _314
REMARK  127  A    between atoms: _314  and  _315
REMARK  128  A    between atoms: _314  and  _317
REMARK  129  A    between atoms: _317  and  _318
REMARK  130  A    between atoms: _321  and  _323
REMARK  131  A    between atoms: _323  and  _324
REMARK  132  A    between atoms: _323  and  _326
REMARK  133  A    between atoms: _326  and  _327
REMARK  134  A    between atoms: _330  and  _332
REMARK  135  A    between atoms: _332  and  _333
REMARK  136  A    between atoms: _332  and  _335
REMARK  137  A    between atoms: _335  and  _336
REMARK  138  A    between atoms: _339  and  _341
REMARK  139  A    between atoms: _341  and  _342
REMARK  140  A    between atoms: _341  and  _344
REMARK  141  A    between atoms: _344  and  _345
REMARK  142  A    between atoms: _348  and  _350
REMARK  143  A    between atoms: _350  and  _351
REMARK  144  A    between atoms: _353  and  _355
REMARK  145  A    between atoms: _355  and  _356
REMARK  146  A    between atoms: _359  and  _361
REMARK  147  A    between atoms: _361  and  _362
REMARK  148  A    between atoms: _361  and  _364
REMARK  149  A    between atoms: _364  and  _365
REMARK  150  A    between atoms: _368  and  _370
REMARK  151  A    between atoms: _370  and  _371
REMARK  152  A    between atoms: _370  and  _373
REMARK  153  A    between atoms: _373  and  _374
REMARK  154  A    between atoms: _379  and  _381
REMARK  155  A    between atoms: _381  and  _382
REMARK  156  A    between atoms: _381  and  _384
REMARK  157  A    between atoms: _384  and  _385
REMARK  158  A    between atoms: _388  and  _390
REMARK  159  A    between atoms: _390  and  _391
REMARK  160  A    between atoms: _390  and  _393
REMARK  161  A    between atoms: _396  and  _398
REMARK  162  A    between atoms: _398  and  _399
REMARK  163  A    between atoms: _398  and  _401
REMARK  164  A    between atoms: _401  and  _402
REMARK  165  A    between atoms: _402  and  _403
REMARK  166  A    between atoms: _403  and  _404
REMARK  167  A    between atoms: _404  and  _405
REMARK  168  A    between atoms: _409  and  _411
REMARK  169  A    between atoms: _411  and  _412
REMARK  170  A    between atoms: _411  and  _414
REMARK  171  A    between atoms: _414  and  _415
REMARK  172  A    between atoms: _415  and  _416
REMARK  173  A    between atoms: _418  and  _420
REMARK  174  A    between atoms: _420  and  _421
REMARK  175  A    between atoms: _420  and  _423
REMARK  176  A    between atoms: _423  and  _424
REMARK  177  A    between atoms: _427  and  _429
REMARK  178  A    between atoms: _429  and  _430
REMARK  179  A    between atoms: _432  and  _434
REMARK  180  A    between atoms: _434  and  _435
REMARK  181  A    between atoms: _437  and  _439
REMARK  182  A    between atoms: _439  and  _440
REMARK  183  A    between atoms: _439  and  _442
REMARK  184  A    between atoms: _442  and  _443
REMARK  185  A    between atoms: _446  and  _448
REMARK  186  A    between atoms: _448  and  _449
REMARK  187  A    between atoms: _451  and  _453
REMARK  188  A    between atoms: _453  and  _454
REMARK  189  A    between atoms: _456  and  _458
REMARK  190  A    between atoms: _458  and  _459
REMARK  191  A    between atoms: _458  and  _461
REMARK  192  A    between atoms: _461  and  _462
REMARK  193  A    between atoms: _468  and  _470
REMARK  194  A    between atoms: _470  and  _471
REMARK  195  A    between atoms: _470  and  _473
REMARK  196  A    between atoms: _473  and  _474
REMARK  197  A    between atoms: _477  and  _479
REMARK  198  A    between atoms: _479  and  _480
REMARK  199  A    between atoms: _479  and  _482
REMARK  200  A    between atoms: _485  and  _487
REMARK  201  A    between atoms: _487  and  _488
REMARK  202  A    between atoms: _487  and  _490
REMARK  203  A    between atoms: _490  and  _491
REMARK  204  A    between atoms: _494  and  _496
REMARK  205  A    between atoms: _496  and  _497
REMARK  206  A    between atoms: _496  and  _499
REMARK  207  A    between atoms: _499  and  _500
REMARK  208  A    between atoms: _504  and  _505
REMARK  209  A    between atoms: _510  and  _512
REMARK  210  A    between atoms: _512  and  _513
REMARK  211  A    between atoms: _512  and  _515
REMARK  212  A    between atoms: _518  and  _520
REMARK  213  A    between atoms: _520  and  _521
REMARK  214  A    between atoms: _520  and  _523
REMARK  215  A    between atoms: _523  and  _524
REMARK  216  A    between atoms: _529  and  _531
REMARK  217  A    between atoms: _531  and  _532
REMARK  218  A    between atoms: _531  and  _534
REMARK  219  A    between atoms: _534  and  _535
REMARK  220  A    between atoms: _538  and  _540
REMARK  221  A    between atoms: _540  and  _541
REMARK  222  A    between atoms: _540  and  _543
REMARK  223  A    between atoms: _543  and  _544
REMARK  224  A    between atoms: _547  and  _549
REMARK  225  A    between atoms: _549  and  _550
REMARK  226  A    between atoms: _552  and  _554
REMARK  227  A    between atoms: _554  and  _555
REMARK  228  A    between atoms: _554  and  _557
REMARK  229  A    between atoms: _557  and  _558
REMARK  230  A    between atoms: _558  and  _559
REMARK  231  A    between atoms: _559  and  _560
REMARK  232  A    between atoms: _569  and  _571
REMARK  233  A    between atoms: _571  and  _572
REMARK  234  A    between atoms: _571  and  _574
REMARK  235  A    between atoms: _574  and  _575
REMARK                            x       y       z     vdW  Elec       q    Type
REMARK                         _______ _______ _______ _____ _____    ______ ____
ROOT
ATOM      1  O   HOH     1       6.062  14.069  20.500  0.00  0.00    +0.000 OA
ENDROOT
TORSDOF 0
REMARK  Name = ../refined-set-2016/2f80/2f80_pocket.pdb
REMARK  235 active torsions:
REMARK  status: ('A' for Active; 'I' for Inactive)
REMARK    1  A    between atoms: _1  and  _3
REMARK    2  A    between atoms: _3  and  _4
REMARK    3  A    between atoms: _3  and  _6
REMARK    4  A    between atoms: _6  and  _7
REMARK    5  A    between atoms: _7  and  _8
REMARK    6  A    between atoms: _8  and  _9
REMARK    7  A    between atoms: _18  and  _20
REMARK    8  A    between atoms: _20  and  _21
REMARK    9  A    between atoms: _20  and  _23
REMARK   10  A    between atoms: _23  and  _24
REMARK   11  A    between atoms: _27  and  _29
REMARK   12  A    between atoms: _29  and  _30
REMARK   13  A    between atoms: _29  and  _32
REMARK   14  A    between atoms: _32  and  _33
REMARK   15  A    between atoms: _36  and  _38
REMARK   16  A    between atoms: _38  and  _39
REMARK   17  A    between atoms: _38  and  _41
REMARK   18  A    between atoms: _41  and  _42
REMARK   19  A    between atoms: _45  and  _47
REMARK   20  A    between atoms: _47  and  _48
REMARK   21  A    between atoms: _47  and  _50
REMARK   22  A    between atoms: _50  and  _51
REMARK   23  A    between atoms: _54  and  _56
REMARK   24  A    between atoms: _56  and  _57
REMARK   25  A    between atoms: _59  and  _61
REMARK   26  A    between atoms: _61  and  _62
REMARK   27  A    between atoms: _65  and  _67
REMARK   28  A    between atoms: _67  and  _68
REMARK   29  A    between atoms: _67  and  _70
REMARK   30  A    between atoms: _70  and  _71
REMARK   31  A    between atoms: _74  and  _76
REMARK   32  A    between atoms: _76  and  _77
REMARK   33  A    between atoms: _76  and  _79
REMARK   34  A    between atoms: _79  and  _80
REMARK   35  A    between atoms: _85  and  _87
REMARK   36  A    between atoms: _87  and  _88
REMARK   37  A    between atoms: _87  and  _90
REMARK   38  A    between atoms: _90  and  _91
REMARK   39  A    between atoms: _94  and  _96
REMARK   40  A    between atoms: _96  and  _97
REMARK   41  A    between atoms: _96  and  _99
REMARK   42  A    between atoms: _102  and  _104
REMARK   43  A    between atoms: _104  and  _105
REMARK   44  A    between atoms: _104  and  _107
REMARK   45  A    between atoms: _107  and  _108
REMARK   46  A    between atoms: _111  and  _113
REMARK   47  A    between atoms: _113  and  _114
REMARK   48  A    between atoms: _113  and  _116
REMARK   49  A    between atoms: _117  and  _118
REMARK   50  A    between atoms: _118  and  _119
REMARK   51  A    between atoms: _119  and  _120
REMARK   52  A    between atoms: _124  and  _126
REMARK   53  A    between atoms: _126  and  _127
REMARK   54  A    between atoms: _126  and  _129
REMARK   55  A    between atoms: _129  and  _130
REMARK   56  A    between atoms: _130  and  _131
REMARK   57  A    between atoms: _133  and  _135
REMARK   58  A    between atoms: _135  and  _136
REMARK   59  A    between atoms: _135  and  _138
REMARK   60  A    between atoms: _138  and  _139
REMARK   61  A    between atoms: _142  and  _144
REMARK   62  A    between atoms: _144  and  _145
REMARK   63  A    between atoms: _147  and  _149
REMARK   64  A    between atoms: _149  and  _150
REMARK   65  A    between atoms: _152  and  _154
REMARK   66  A    between atoms: _154  and  _155
REMARK   67  A    between atoms: _154  and  _157
REMARK   68  A    between atoms: _157  and  _158
REMARK   69  A    between atoms: _161  and  _163
REMARK   70  A    between atoms: _163  and  _164
REMARK   71  A    between atoms: _166  and  _168
REMARK   72  A    between atoms: _168  and  _169
REMARK   73  A    between atoms: _171  and  _173
REMARK   74  A    between atoms: _173  and  _174
REMARK   75  A    between atoms: _173  and  _176
REMARK   76  A    between atoms: _176  and  _177
REMARK   77  A    between atoms: _183  and  _185
REMARK   78  A    between atoms: _185  and  _186
REMARK   79  A    between atoms: _185  and  _188
REMARK   80  A    between atoms: _188  and  _189
REMARK   81  A    between atoms: _192  and  _194
REMARK   82  A    between atoms: _194  and  _195
REMARK   83  A    between atoms: _194  and  _197
REMARK   84  A    between atoms: _200  and  _202
REMARK   85  A    between atoms: _202  and  _203
REMARK   86  A    between atoms: _202  and  _205
REMARK   87  A    between atoms: _205  and  _206
REMARK   88  A    between atoms: _209  and  _211
REMARK   89  A    between atoms: _211  and  _212
REMARK   90  A    between atoms: _211  and  _214
REMARK   91  A    between atoms: _214  and  _215
REMARK   92  A    between atoms: _219  and  _220
REMARK   93  A    between atoms: _225  and  _227
REMARK   94  A    between atoms: _227  and  _228
REMARK   95  A    between atoms: _227  and  _230
REMARK   96  A    between atoms: _233  and  _235
REMARK   97  A    between atoms: _235  and  _236
REMARK   98  A    between atoms: _235  and  _238
REMARK   99  A    between atoms: _238  and  _239
REMARK  100  A    between atoms: _244  and  _246
REMARK  101  A    between atoms: _246  and  _247
REMARK  102  A    between atoms: _246  and  _249
REMARK  103  A    between atoms: _249  and  _250
REMARK  104  A    between atoms: _253  and  _255
REMARK  105  A    between atoms: _255  and  _256
REMARK  106  A    between atoms: _255  and  _258
REMARK  107  A    between atoms: _258  and  _259
REMARK  108  A    between atoms: _262  and  _264
REMARK  109  A    between atoms: _264  and  _265
REMARK  110  A    between atoms: _267  and  _269
REMARK  111  A    between atoms: _269  and  _270
REMARK  112  A    between atoms: _269  and  _272
REMARK  113  A    between atoms: _272  and  _273
REMARK  114  A    between atoms: _273  and  _274
REMARK  115  A    between atoms: _274  and  _275
REMARK  116  A    between atoms: _284  and  _286
REMARK  117  A    between atoms: _286  and  _287
REMARK  118  A    between atoms: _286  and  _289
REMARK  119  A    between atoms: _289  and  _290
REMARK  120  A    between atoms: _295  and  _297
REMARK  121  A    between atoms: _297  and  _298
REMARK  122  A    between atoms: _297  and  _300
REMARK  123  A    between atoms: _300  and  _301
REMARK  124  A    between atoms: _301  and  _302
REMARK  125  A    between atoms: _302  and  _303
REMARK  126  A    between atoms: _312  and  _314
REMARK  127  A    between atoms: _314  and  _315
REMARK  128  A    between atoms: _314  and  _317
REMARK  129  A    between atoms: _317  and  _318
REMARK  130  A    between atoms: _321  and  _323
REMARK  131  A    between atoms: _323  and  _324
REMARK  132  A    between atoms: _323  and  _326
REMARK  133  A    between atoms: _326  and  _327
REMARK  134  A    between atoms: _330  and  _332
REMARK  135  A    between atoms: _332  and  _333
REMARK  136  A    between atoms: _332  and  _335
REMARK  137  A    between atoms: _335  and  _336
REMARK  138  A    between atoms: _339  and  _341
REMARK  139  A    between atoms: _341  and  _342
REMARK  140  A    between atoms: _341  and  _344
REMARK  141  A    between atoms: _344  and  _345
REMARK  142  A    between atoms: _348  and  _350
REMARK  143  A    between atoms: _350  and  _351
REMARK  144  A    between atoms: _353  and  _355
REMARK  145  A    between atoms: _355  and  _356
REMARK  146  A    between atoms: _359  and  _361
REMARK  147  A    between atoms: _361  and  _362
REMARK  148  A    between atoms: _361  and  _364
REMARK  149  A    between atoms: _364  and  _365
REMARK  150  A    between atoms: _368  and  _370
REMARK  151  A    between atoms: _370  and  _371
REMARK  152  A    between atoms: _370  and  _373
REMARK  153  A    between atoms: _373  and  _374
REMARK  154  A    between atoms: _379  and  _381
REMARK  155  A    between atoms: _381  and  _382
REMARK  156  A    between atoms: _381  and  _384
REMARK  157  A    between atoms: _384  and  _385
REMARK  158  A    between atoms: _388  and  _390
REMARK  159  A    between atoms: _390  and  _391
REMARK  160  A    between atoms: _390  and  _393
REMARK  161  A    between atoms: _396  and  _398
REMARK  162  A    between atoms: _398  and  _399
REMARK  163  A    between atoms: _398  and  _401
REMARK  164  A    between atoms: _401  and  _402
REMARK  165  A    between atoms: _402  and  _403
REMARK  166  A    between atoms: _403  and  _404
REMARK  167  A    between atoms: _404  and  _405
REMARK  168  A    between atoms: _409  and  _411
REMARK  169  A    between atoms: _411  and  _412
REMARK  170  A    between atoms: _411  and  _414
REMARK  171  A    between atoms: _414  and  _415
REMARK  172  A    between atoms: _415  and  _416
REMARK  173  A    between atoms: _418  and  _420
REMARK  174  A    between atoms: _420  and  _421
REMARK  175  A    between atoms: _420  and  _423
REMARK  176  A    between atoms: _423  and  _424
REMARK  177  A    between atoms: _427  and  _429
REMARK  178  A    between atoms: _429  and  _430
REMARK  179  A    between atoms: _432  and  _434
REMARK  180  A    between atoms: _434  and  _435
REMARK  181  A    between atoms: _437  and  _439
REMARK  182  A    between atoms: _439  and  _440
REMARK  183  A    between atoms: _439  and  _442
REMARK  184  A    between atoms: _442  and  _443
REMARK  185  A    between atoms: _446  and  _448
REMARK  186  A    between atoms: _448  and  _449
REMARK  187  A    between atoms: _451  and  _453
REMARK  188  A    between atoms: _453  and  _454
REMARK  189  A    between atoms: _456  and  _458
REMARK  190  A    between atoms: _458  and  _459
REMARK  191  A    between atoms: _458  and  _461
REMARK  192  A    between atoms: _461  and  _462
REMARK  193  A    between atoms: _468  and  _470
REMARK  194  A    between atoms: _470  and  _471
REMARK  195  A    between atoms: _470  and  _473
REMARK  196  A    between atoms: _473  and  _474
REMARK  197  A    between atoms: _477  and  _479
REMARK  198  A    between atoms: _479  and  _480
REMARK  199  A    between atoms: _479  and  _482
REMARK  200  A    between atoms: _485  and  _487
REMARK  201  A    between atoms: _487  and  _488
REMARK  202  A    between atoms: _487  and  _490
REMARK  203  A    between atoms: _490  and  _491
REMARK  204  A    between atoms: _494  and  _496
REMARK  205  A    between atoms: _496  and  _497
REMARK  206  A    between atoms: _496  and  _499
REMARK  207  A    between atoms: _499  and  _500
REMARK  208  A    between atoms: _504  and  _505
REMARK  209  A    between atoms: _510  and  _512
REMARK  210  A    between atoms: _512  and  _513
REMARK  211  A    between atoms: _512  and  _515
REMARK  212  A    between atoms: _518  and  _520
REMARK  213  A    between atoms: _520  and  _521
REMARK  214  A    between atoms: _520  and  _523
REMARK  215  A    between atoms: _523  and  _524
REMARK  216  A    between atoms: _529  and  _531
REMARK  217  A    between atoms: _531  and  _532
REMARK  218  A    between atoms: _531  and  _534
REMARK  219  A    between atoms: _534  and  _535
REMARK  220  A    between atoms: _538  and  _540
REMARK  221  A    between atoms: _540  and  _541
REMARK  222  A    between atoms: _540  and  _543
REMARK  223  A    between atoms: _543  and  _544
REMARK  224  A    between atoms: _547  and  _549
REMARK  225  A    between atoms: _549  and  _550
REMARK  226  A    between atoms: _552  and  _554
REMARK  227  A    between atoms: _554  and  _555
REMARK  228  A    between atoms: _554  and  _557
REMARK  229  A    between atoms: _557  and  _558
REMARK  230  A    between atoms: _558  and  _559
REMARK  231  A    between atoms: _559  and  _560
REMARK  232  A    between atoms: _569  and  _571
REMARK  233  A    between atoms: _571  and  _572
REMARK  234  A    between atoms: _571  and  _574
REMARK  235  A    between atoms: _574  and  _575
REMARK                            x       y       z     vdW  Elec       q    Type
REMARK                         _______ _______ _______ _____ _____    ______ ____
ROOT
ATOM      1  O   HOH     1      19.173  17.650   8.982  0.00  0.00    +0.000 OA
ENDROOT
TORSDOF 0
REMARK  Name = ../refined-set-2016/2f80/2f80_pocket.pdb
REMARK  235 active torsions:
REMARK  status: ('A' for Active; 'I' for Inactive)
REMARK    1  A    between atoms: _1  and  _3
REMARK    2  A    between atoms: _3  and  _4
REMARK    3  A    between atoms: _3  and  _6
REMARK    4  A    between atoms: _6  and  _7
REMARK    5  A    between atoms: _7  and  _8
REMARK    6  A    between atoms: _8  and  _9
REMARK    7  A    between atoms: _18  and  _20
REMARK    8  A    between atoms: _20  and  _21
REMARK    9  A    between atoms: _20  and  _23
REMARK   10  A    between atoms: _23  and  _24
REMARK   11  A    between atoms: _27  and  _29
REMARK   12  A    between atoms: _29  and  _30
REMARK   13  A    between atoms: _29  and  _32
REMARK   14  A    between atoms: _32  and  _33
REMARK   15  A    between atoms: _36  and  _38
REMARK   16  A    between atoms: _38  and  _39
REMARK   17  A    between atoms: _38  and  _41
REMARK   18  A    between atoms: _41  and  _42
REMARK   19  A    between atoms: _45  and  _47
REMARK   20  A    between atoms: _47  and  _48
REMARK   21  A    between atoms: _47  and  _50
REMARK   22  A    between atoms: _50  and  _51
REMARK   23  A    between atoms: _54  and  _56
REMARK   24  A    between atoms: _56  and  _57
REMARK   25  A    between atoms: _59  and  _61
REMARK   26  A    between atoms: _61  and  _62
REMARK   27  A    between atoms: _65  and  _67
REMARK   28  A    between atoms: _67  and  _68
REMARK   29  A    between atoms: _67  and  _70
REMARK   30  A    between atoms: _70  and  _71
REMARK   31  A    between atoms: _74  and  _76
REMARK   32  A    between atoms: _76  and  _77
REMARK   33  A    between atoms: _76  and  _79
REMARK   34  A    between atoms: _79  and  _80
REMARK   35  A    between atoms: _85  and  _87
REMARK   36  A    between atoms: _87  and  _88
REMARK   37  A    between atoms: _87  and  _90
REMARK   38  A    between atoms: _90  and  _91
REMARK   39  A    between atoms: _94  and  _96
REMARK   40  A    between atoms: _96  and  _97
REMARK   41  A    between atoms: _96  and  _99
REMARK   42  A    between atoms: _102  and  _104
REMARK   43  A    between atoms: _104  and  _105
REMARK   44  A    between atoms: _104  and  _107
REMARK   45  A    between atoms: _107  and  _108
REMARK   46  A    between atoms: _111  and  _113
REMARK   47  A    between atoms: _113  and  _114
REMARK   48  A    between atoms: _113  and  _116
REMARK   49  A    between atoms: _117  and  _118
REMARK   50  A    between atoms: _118  and  _119
REMARK   51  A    between atoms: _119  and  _120
REMARK   52  A    between atoms: _124  and  _126
REMARK   53  A    between atoms: _126  and  _127
REMARK   54  A    between atoms: _126  and  _129
REMARK   55  A    between atoms: _129  and  _130
REMARK   56  A    between atoms: _130  and  _131
REMARK   57  A    between atoms: _133  and  _135
REMARK   58  A    between atoms: _135  and  _136
REMARK   59  A    between atoms: _135  and  _138
REMARK   60  A    between atoms: _138  and  _139
REMARK   61  A    between atoms: _142  and  _144
REMARK   62  A    between atoms: _144  and  _145
REMARK   63  A    between atoms: _147  and  _149
REMARK   64  A    between atoms: _149  and  _150
REMARK   65  A    between atoms: _152  and  _154
REMARK   66  A    between atoms: _154  and  _155
REMARK   67  A    between atoms: _154  and  _157
REMARK   68  A    between atoms: _157  and  _158
REMARK   69  A    between atoms: _161  and  _163
REMARK   70  A    between atoms: _163  and  _164
REMARK   71  A    between atoms: _166  and  _168
REMARK   72  A    between atoms: _168  and  _169
REMARK   73  A    between atoms: _171  and  _173
REMARK   74  A    between atoms: _173  and  _174
REMARK   75  A    between atoms: _173  and  _176
REMARK   76  A    between atoms: _176  and  _177
REMARK   77  A    between atoms: _183  and  _185
REMARK   78  A    between atoms: _185  and  _186
REMARK   79  A    between atoms: _185  and  _188
REMARK   80  A    between atoms: _188  and  _189
REMARK   81  A    between atoms: _192  and  _194
REMARK   82  A    between atoms: _194  and  _195
REMARK   83  A    between atoms: _194  and  _197
REMARK   84  A    between atoms: _200  and  _202
REMARK   85  A    between atoms: _202  and  _203
REMARK   86  A    between atoms: _202  and  _205
REMARK   87  A    between atoms: _205  and  _206
REMARK   88  A    between atoms: _209  and  _211
REMARK   89  A    between atoms: _211  and  _212
REMARK   90  A    between atoms: _211  and  _214
REMARK   91  A    between atoms: _214  and  _215
REMARK   92  A    between atoms: _219  and  _220
REMARK   93  A    between atoms: _225  and  _227
REMARK   94  A    between atoms: _227  and  _228
REMARK   95  A    between atoms: _227  and  _230
REMARK   96  A    between atoms: _233  and  _235
REMARK   97  A    between atoms: _235  and  _236
REMARK   98  A    between atoms: _235  and  _238
REMARK   99  A    between atoms: _238  and  _239
REMARK  100  A    between atoms: _244  and  _246
REMARK  101  A    between atoms: _246  and  _247
REMARK  102  A    between atoms: _246  and  _249
REMARK  103  A    between atoms: _249  and  _250
REMARK  104  A    between atoms: _253  and  _255
REMARK  105  A    between atoms: _255  and  _256
REMARK  106  A    between atoms: _255  and  _258
REMARK  107  A    between atoms: _258  and  _259
REMARK  108  A    between atoms: _262  and  _264
REMARK  109  A    between atoms: _264  and  _265
REMARK  110  A    between atoms: _267  and  _269
REMARK  111  A    between atoms: _269  and  _270
REMARK  112  A    between atoms: _269  and  _272
REMARK  113  A    between atoms: _272  and  _273
REMARK  114  A    between atoms: _273  and  _274
REMARK  115  A    between atoms: _274  and  _275
REMARK  116  A    between atoms: _284  and  _286
REMARK  117  A    between atoms: _286  and  _287
REMARK  118  A    between atoms: _286  and  _289
REMARK  119  A    between atoms: _289  and  _290
REMARK  120  A    between atoms: _295  and  _297
REMARK  121  A    between atoms: _297  and  _298
REMARK  122  A    between atoms: _297  and  _300
REMARK  123  A    between atoms: _300  and  _301
REMARK  124  A    between atoms: _301  and  _302
REMARK  125  A    between atoms: _302  and  _303
REMARK  126  A    between atoms: _312  and  _314
REMARK  127  A    between atoms: _314  and  _315
REMARK  128  A    between atoms: _314  and  _317
REMARK  129  A    between atoms: _317  and  _318
REMARK  130  A    between atoms: _321  and  _323
REMARK  131  A    between atoms: _323  and  _324
REMARK  132  A    between atoms: _323  and  _326
REMARK  133  A    between atoms: _326  and  _327
REMARK  134  A    between atoms: _330  and  _332
REMARK  135  A    between atoms: _332  and  _333
REMARK  136  A    between atoms: _332  and  _335
REMARK  137  A    between atoms: _335  and  _336
REMARK  138  A    between atoms: _339  and  _341
REMARK  139  A    between atoms: _341  and  _342
REMARK  140  A    between atoms: _341  and  _344
REMARK  141  A    between atoms: _344  and  _345
REMARK  142  A    between atoms: _348  and  _350
REMARK  143  A    between atoms: _350  and  _351
REMARK  144  A    between atoms: _353  and  _355
REMARK  145  A    between atoms: _355  and  _356
REMARK  146  A    between atoms: _359  and  _361
REMARK  147  A    between atoms: _361  and  _362
REMARK  148  A    between atoms: _361  and  _364
REMARK  149  A    between atoms: _364  and  _365
REMARK  150  A    between atoms: _368  and  _370
REMARK  151  A    between atoms: _370  and  _371
REMARK  152  A    between atoms: _370  and  _373
REMARK  153  A    between atoms: _373  and  _374
REMARK  154  A    between atoms: _379  and  _381
REMARK  155  A    between atoms: _381  and  _382
REMARK  156  A    between atoms: _381  and  _384
REMARK  157  A    between atoms: _384  and  _385
REMARK  158  A    between atoms: _388  and  _390
REMARK  159  A    between atoms: _390  and  _391
REMARK  160  A    between atoms: _390  and  _393
REMARK  161  A    between atoms: _396  and  _398
REMARK  162  A    between atoms: _398  and  _399
REMARK  163  A    between atoms: _398  and  _401
REMARK  164  A    between atoms: _401  and  _402
REMARK  165  A    between atoms: _402  and  _403
REMARK  166  A    between atoms: _403  and  _404
REMARK  167  A    between atoms: _404  and  _405
REMARK  168  A    between atoms: _409  and  _411
REMARK  169  A    between atoms: _411  and  _412
REMARK  170  A    between atoms: _411  and  _414
REMARK  171  A    between atoms: _414  and  _415
REMARK  172  A    between atoms: _415  and  _416
REMARK  173  A    between atoms: _418  and  _420
REMARK  174  A    between atoms: _420  and  _421
REMARK  175  A    between atoms: _420  and  _423
REMARK  176  A    between atoms: _423  and  _424
REMARK  177  A    between atoms: _427  and  _429
REMARK  178  A    between atoms: _429  and  _430
REMARK  179  A    between atoms: _432  and  _434
REMARK  180  A    between atoms: _434  and  _435
REMARK  181  A    between atoms: _437  and  _439
REMARK  182  A    between atoms: _439  and  _440
REMARK  183  A    between atoms: _439  and  _442
REMARK  184  A    between atoms: _442  and  _443
REMARK  185  A    between atoms: _446  and  _448
REMARK  186  A    between atoms: _448  and  _449
REMARK  187  A    between atoms: _451  and  _453
REMARK  188  A    between atoms: _453  and  _454
REMARK  189  A    between atoms: _456  and  _458
REMARK  190  A    between atoms: _458  and  _459
REMARK  191  A    between atoms: _458  and  _461
REMARK  192  A    between atoms: _461  and  _462
REMARK  193  A    between atoms: _468  and  _470
REMARK  194  A    between atoms: _470  and  _471
REMARK  195  A    between atoms: _470  and  _473
REMARK  196  A    between atoms: _473  and  _474
REMARK  197  A    between atoms: _477  and  _479
REMARK  198  A    between atoms: _479  and  _480
REMARK  199  A    between atoms: _479  and  _482
REMARK  200  A    between atoms: _485  and  _487
REMARK  201  A    between atoms: _487  and  _488
REMARK  202  A    between atoms: _487  and  _490
REMARK  203  A    between atoms: _490  and  _491
REMARK  204  A    between atoms: _494  and  _496
REMARK  205  A    between atoms: _496  and  _497
REMARK  206  A    between atoms: _496  and  _499
REMARK  207  A    between atoms: _499  and  _500
REMARK  208  A    between atoms: _504  and  _505
REMARK  209  A    between atoms: _510  and  _512
REMARK  210  A    between atoms: _512  and  _513
REMARK  211  A    between atoms: _512  and  _515
REMARK  212  A    between atoms: _518  and  _520
REMARK  213  A    between atoms: _520  and  _521
REMARK  214  A    between atoms: _520  and  _523
REMARK  215  A    between atoms: _523  and  _524
REMARK  216  A    between atoms: _529  and  _531
REMARK  217  A    between atoms: _531  and  _532
REMARK  218  A    between atoms: _531  and  _534
REMARK  219  A    between atoms: _534  and  _535
REMARK  220  A    between atoms: _538  and  _540
REMARK  221  A    between atoms: _540  and  _541
REMARK  222  A    between atoms: _540  and  _543
REMARK  223  A    between atoms: _543  and  _544
REMARK  224  A    between atoms: _547  and  _549
REMARK  225  A    between atoms: _549  and  _550
REMARK  226  A    between atoms: _552  and  _554
REMARK  227  A    between atoms: _554  and  _555
REMARK  228  A    between atoms: _554  and  _557
REMARK  229  A    between atoms: _557  and  _558
REMARK  230  A    between atoms: _558  and  _559
REMARK  231  A    between atoms: _559  and  _560
REMARK  232  A    between atoms: _569  and  _571
REMARK  233  A    between atoms: _571  and  _572
REMARK  234  A    between atoms: _571  and  _574
REMARK  235  A    between atoms: _574  and  _575
REMARK                            x       y       z     vdW  Elec       q    Type
REMARK                         _______ _______ _______ _____ _____    ______ ____
ROOT
ATOM      1  O   HOH     1      17.046  15.316   9.140  0.00  0.00    +0.000 OA
ENDROOT
TORSDOF 0
