REMARK  Name = ../refined-set-2016/2oax/2oax_pocket.pdb
REMARK  278 active torsions:
REMARK  status: ('A' for Active; 'I' for Inactive)
REMARK    1  A    between atoms: _1  and  _3
REMARK    2  A    between atoms: _3  and  _4
REMARK    3  A    between atoms: _7  and  _9
REMARK    4  A    between atoms: _9  and  _10
REMARK    5  A    between atoms: _9  and  _12
REMARK    6  A    between atoms: _12  and  _13
REMARK    7  A    between atoms: _13  and  _14
REMARK    8  A    between atoms: _17  and  _19
REMARK    9  A    between atoms: _19  and  _20
REMARK   10  A    between atoms: _19  and  _22
REMARK   11  A    between atoms: _22  and  _23
REMARK   12  A    between atoms: _26  and  _28
REMARK   13  A    between atoms: _28  and  _29
REMARK   14  A    between atoms: _28  and  _31
REMARK   15  A    between atoms: _31  and  _32
REMARK   16  A    between atoms: _35  and  _37
REMARK   17  A    between atoms: _37  and  _38
REMARK   18  A    between atoms: _37  and  _40
REMARK   19  A    between atoms: _40  and  _41
REMARK   20  A    between atoms: _43  and  _45
REMARK   21  A    between atoms: _45  and  _46
REMARK   22  A    between atoms: _45  and  _48
REMARK   23  A    between atoms: _48  and  _49
REMARK   24  A    between atoms: _52  and  _54
REMARK   25  A    between atoms: _54  and  _55
REMARK   26  A    between atoms: _54  and  _57
REMARK   27  A    between atoms: _57  and  _58
REMARK   28  A    between atoms: _61  and  _63
REMARK   29  A    between atoms: _63  and  _64
REMARK   30  A    between atoms: _63  and  _66
REMARK   31  A    between atoms: _66  and  _67
REMARK   32  A    between atoms: _72  and  _74
REMARK   33  A    between atoms: _74  and  _75
REMARK   34  A    between atoms: _74  and  _77
REMARK   35  A    between atoms: _77  and  _78
REMARK   36  A    between atoms: _78  and  _79
REMARK   37  A    between atoms: _79  and  _80
REMARK   38  A    between atoms: _89  and  _91
REMARK   39  A    between atoms: _91  and  _92
REMARK   40  A    between atoms: _91  and  _94
REMARK   41  A    between atoms: _94  and  _95
REMARK   42  A    between atoms: _98  and  _100
REMARK   43  A    between atoms: _100  and  _101
REMARK   44  A    between atoms: _104  and  _106
REMARK   45  A    between atoms: _106  and  _107
REMARK   46  A    between atoms: _109  and  _111
REMARK   47  A    between atoms: _111  and  _112
REMARK   48  A    between atoms: _111  and  _114
REMARK   49  A    between atoms: _114  and  _115
REMARK   50  A    between atoms: _115  and  _116
REMARK   51  A    between atoms: _116  and  _117
REMARK   52  A    between atoms: _117  and  _118
REMARK   53  A    between atoms: _122  and  _124
REMARK   54  A    between atoms: _124  and  _125
REMARK   55  A    between atoms: _124  and  _127
REMARK   56  A    between atoms: _127  and  _128
REMARK   57  A    between atoms: _128  and  _129
REMARK   58  A    between atoms: _134  and  _136
REMARK   59  A    between atoms: _136  and  _137
REMARK   60  A    between atoms: _136  and  _139
REMARK   61  A    between atoms: _139  and  _140
REMARK   62  A    between atoms: _140  and  _141
REMARK   63  A    between atoms: _143  and  _145
REMARK   64  A    between atoms: _145  and  _146
REMARK   65  A    between atoms: _145  and  _148
REMARK   66  A    between atoms: _148  and  _149
REMARK   67  A    between atoms: _159  and  _161
REMARK   68  A    between atoms: _161  and  _162
REMARK   69  A    between atoms: _161  and  _164
REMARK   70  A    between atoms: _164  and  _165
REMARK   71  A    between atoms: _165  and  _166
REMARK   72  A    between atoms: _168  and  _170
REMARK   73  A    between atoms: _170  and  _171
REMARK   74  A    between atoms: _170  and  _173
REMARK   75  A    between atoms: _175  and  _177
REMARK   76  A    between atoms: _177  and  _178
REMARK   77  A    between atoms: _177  and  _180
REMARK   78  A    between atoms: _180  and  _181
REMARK   79  A    between atoms: _184  and  _186
REMARK   80  A    between atoms: _186  and  _187
REMARK   81  A    between atoms: _186  and  _189
REMARK   82  A    between atoms: _189  and  _190
REMARK   83  A    between atoms: _193  and  _195
REMARK   84  A    between atoms: _195  and  _196
REMARK   85  A    between atoms: _195  and  _198
REMARK   86  A    between atoms: _198  and  _199
REMARK   87  A    between atoms: _201  and  _203
REMARK   88  A    between atoms: _203  and  _204
REMARK   89  A    between atoms: _203  and  _206
REMARK   90  A    between atoms: _206  and  _207
REMARK   91  A    between atoms: _213  and  _215
REMARK   92  A    between atoms: _215  and  _216
REMARK   93  A    between atoms: _219  and  _221
REMARK   94  A    between atoms: _221  and  _222
REMARK   95  A    between atoms: _221  and  _224
REMARK   96  A    between atoms: _224  and  _225
REMARK   97  A    between atoms: _228  and  _230
REMARK   98  A    between atoms: _230  and  _231
REMARK   99  A    between atoms: _230  and  _233
REMARK  100  A    between atoms: _233  and  _234
REMARK  101  A    between atoms: _236  and  _238
REMARK  102  A    between atoms: _238  and  _239
REMARK  103  A    between atoms: _238  and  _241
REMARK  104  A    between atoms: _241  and  _242
REMARK  105  A    between atoms: _252  and  _254
REMARK  106  A    between atoms: _254  and  _255
REMARK  107  A    between atoms: _254  and  _257
REMARK  108  A    between atoms: _257  and  _258
REMARK  109  A    between atoms: _258  and  _259
REMARK  110  A    between atoms: _259  and  _260
REMARK  111  A    between atoms: _269  and  _271
REMARK  112  A    between atoms: _271  and  _272
REMARK  113  A    between atoms: _271  and  _274
REMARK  114  A    between atoms: _274  and  _275
REMARK  115  A    between atoms: _277  and  _279
REMARK  116  A    between atoms: _279  and  _280
REMARK  117  A    between atoms: _279  and  _282
REMARK  118  A    between atoms: _282  and  _283
REMARK  119  A    between atoms: _286  and  _288
REMARK  120  A    between atoms: _288  and  _289
REMARK  121  A    between atoms: _288  and  _291
REMARK  122  A    between atoms: _291  and  _292
REMARK  123  A    between atoms: _297  and  _298
REMARK  124  A    between atoms: _300  and  _302
REMARK  125  A    between atoms: _302  and  _303
REMARK  126  A    between atoms: _302  and  _305
REMARK  127  A    between atoms: _305  and  _306
REMARK  128  A    between atoms: _312  and  _314
REMARK  129  A    between atoms: _314  and  _315
REMARK  130  A    between atoms: _318  and  _320
REMARK  131  A    between atoms: _320  and  _321
REMARK  132  A    between atoms: _320  and  _323
REMARK  133  A    between atoms: _323  and  _324
REMARK  134  A    between atoms: _327  and  _329
REMARK  135  A    between atoms: _329  and  _330
REMARK  136  A    between atoms: _329  and  _332
REMARK  137  A    between atoms: _332  and  _333
REMARK  138  A    between atoms: _339  and  _341
REMARK  139  A    between atoms: _341  and  _342
REMARK  140  A    between atoms: _341  and  _344
REMARK  141  A    between atoms: _344  and  _345
REMARK  142  A    between atoms: _345  and  _346
REMARK  143  A    between atoms: _348  and  _350
REMARK  144  A    between atoms: _350  and  _351
REMARK  145  A    between atoms: _350  and  _353
REMARK  146  A    between atoms: _353  and  _354
REMARK  147  A    between atoms: _356  and  _358
REMARK  148  A    between atoms: _358  and  _359
REMARK  149  A    between atoms: _362  and  _364
REMARK  150  A    between atoms: _364  and  _365
REMARK  151  A    between atoms: _364  and  _367
REMARK  152  A    between atoms: _367  and  _368
REMARK  153  A    between atoms: _368  and  _369
REMARK  154  A    between atoms: _371  and  _373
REMARK  155  A    between atoms: _373  and  _374
REMARK  156  A    between atoms: _373  and  _376
REMARK  157  A    between atoms: _376  and  _377
REMARK  158  A    between atoms: _382  and  _383
REMARK  159  A    between atoms: _385  and  _387
REMARK  160  A    between atoms: _387  and  _388
REMARK  161  A    between atoms: _387  and  _390
REMARK  162  A    between atoms: _390  and  _391
REMARK  163  A    between atoms: _391  and  _392
REMARK  164  A    between atoms: _395  and  _397
REMARK  165  A    between atoms: _397  and  _398
REMARK  166  A    between atoms: _397  and  _400
REMARK  167  A    between atoms: _400  and  _401
REMARK  168  A    between atoms: _404  and  _406
REMARK  169  A    between atoms: _406  and  _407
REMARK  170  A    between atoms: _406  and  _409
REMARK  171  A    between atoms: _411  and  _413
REMARK  172  A    between atoms: _413  and  _414
REMARK  173  A    between atoms: _413  and  _416
REMARK  174  A    between atoms: _416  and  _417
REMARK  175  A    between atoms: _417  and  _418
REMARK  176  A    between atoms: _423  and  _425
REMARK  177  A    between atoms: _425  and  _426
REMARK  178  A    between atoms: _428  and  _430
REMARK  179  A    between atoms: _430  and  _431
REMARK  180  A    between atoms: _430  and  _433
REMARK  181  A    between atoms: _433  and  _434
REMARK  182  A    between atoms: _434  and  _435
REMARK  183  A    between atoms: _437  and  _439
REMARK  184  A    between atoms: _439  and  _440
REMARK  185  A    between atoms: _439  and  _442
REMARK  186  A    between atoms: _442  and  _443
REMARK  187  A    between atoms: _448  and  _450
REMARK  188  A    between atoms: _450  and  _451
REMARK  189  A    between atoms: _450  and  _453
REMARK  190  A    between atoms: _453  and  _454
REMARK  191  A    between atoms: _454  and  _455
REMARK  192  A    between atoms: _457  and  _459
REMARK  193  A    between atoms: _459  and  _460
REMARK  194  A    between atoms: _459  and  _462
REMARK  195  A    between atoms: _462  and  _463
REMARK  196  A    between atoms: _466  and  _468
REMARK  197  A    between atoms: _468  and  _469
REMARK  198  A    between atoms: _468  and  _471
REMARK  199  A    between atoms: _474  and  _476
REMARK  200  A    between atoms: _476  and  _477
REMARK  201  A    between atoms: _476  and  _479
REMARK  202  A    between atoms: _479  and  _480
REMARK  203  A    between atoms: _483  and  _485
REMARK  204  A    between atoms: _485  and  _486
REMARK  205  A    between atoms: _485  and  _488
REMARK  206  A    between atoms: _488  and  _489
REMARK  207  A    between atoms: _492  and  _494
REMARK  208  A    between atoms: _494  and  _495
REMARK  209  A    between atoms: _494  and  _497
REMARK  210  A    between atoms: _497  and  _498
REMARK  211  A    between atoms: _501  and  _503
REMARK  212  A    between atoms: _503  and  _504
REMARK  213  A    between atoms: _503  and  _506
REMARK  214  A    between atoms: _506  and  _507
REMARK  215  A    between atoms: _507  and  _508
REMARK  216  A    between atoms: _511  and  _513
REMARK  217  A    between atoms: _513  and  _514
REMARK  218  A    between atoms: _513  and  _516
REMARK  219  A    between atoms: _516  and  _517
REMARK  220  A    between atoms: _523  and  _525
REMARK  221  A    between atoms: _525  and  _526
REMARK  222  A    between atoms: _525  and  _528
REMARK  223  A    between atoms: _530  and  _532
REMARK  224  A    between atoms: _532  and  _533
REMARK  225  A    between atoms: _532  and  _535
REMARK  226  A    between atoms: _535  and  _536
REMARK  227  A    between atoms: _542  and  _544
REMARK  228  A    between atoms: _544  and  _545
REMARK  229  A    between atoms: _544  and  _547
REMARK  230  A    between atoms: _547  and  _548
REMARK  231  A    between atoms: _553  and  _554
REMARK  232  A    between atoms: _556  and  _558
REMARK  233  A    between atoms: _558  and  _559
REMARK  234  A    between atoms: _558  and  _561
REMARK  235  A    between atoms: _561  and  _562
REMARK  236  A    between atoms: _565  and  _567
REMARK  237  A    between atoms: _567  and  _568
REMARK  238  A    between atoms: _567  and  _570
REMARK  239  A    between atoms: _570  and  _571
REMARK  240  A    between atoms: _577  and  _579
REMARK  241  A    between atoms: _579  and  _580
REMARK  242  A    between atoms: _579  and  _582
REMARK  243  A    between atoms: _582  and  _583
REMARK  244  A    between atoms: _583  and  _584
REMARK  245  A    between atoms: _584  and  _585
REMARK  246  A    between atoms: _594  and  _596
REMARK  247  A    between atoms: _596  and  _597
REMARK  248  A    between atoms: _596  and  _599
REMARK  249  A    between atoms: _599  and  _600
REMARK  250  A    between atoms: _600  and  _601
REMARK  251  A    between atoms: _604  and  _606
REMARK  252  A    between atoms: _606  and  _607
REMARK  253  A    between atoms: _606  and  _609
REMARK  254  A    between atoms: _609  and  _610
REMARK  255  A    between atoms: _612  and  _614
REMARK  256  A    between atoms: _614  and  _615
REMARK  257  A    between atoms: _614  and  _617
REMARK  258  A    between atoms: _617  and  _618
REMARK  259  A    between atoms: _621  and  _623
REMARK  260  A    between atoms: _623  and  _624
REMARK  261  A    between atoms: _623  and  _626
REMARK  262  A    between atoms: _629  and  _631
REMARK  263  A    between atoms: _631  and  _632
REMARK  264  A    between atoms: _631  and  _634
REMARK  265  A    between atoms: _634  and  _635
REMARK  266  A    between atoms: _635  and  _636
REMARK  267  A    between atoms: _639  and  _641
REMARK  268  A    between atoms: _641  and  _642
REMARK  269  A    between atoms: _641  and  _644
REMARK  270  A    between atoms: _644  and  _645
REMARK  271  A    between atoms: _651  and  _653
REMARK  272  A    between atoms: _653  and  _654
REMARK  273  A    between atoms: _653  and  _656
REMARK  274  A    between atoms: _656  and  _657
REMARK  275  A    between atoms: _660  and  _662
REMARK  276  A    between atoms: _662  and  _663
REMARK  277  A    between atoms: _662  and  _665
REMARK  278  A    between atoms: _665  and  _666
REMARK                            x       y       z     vdW  Elec       q    Type
REMARK                         _______ _______ _______ _____ _____    ______ ____
ROOT
ATOM      1  C   ALA A   1     -30.650  65.140   7.876  0.00  0.00    +0.238 C 
ATOM      2  O   ALA A   1     -29.556  64.735   7.475  0.00  0.00    -0.274 OA
ATOM      3  N   GLU A   2     -31.374  66.048   7.230  0.00  0.00    -0.298 N 
ATOM      4  H   GLU A   2     -32.293  66.328   7.629  0.00  0.00    +0.150 HD
ENDROOT
BRANCH   1   5
ATOM      5  CA  ALA A   1     -31.265  64.606   9.170  0.00  0.00    +0.145 C 
ATOM      6  CB  ALA A   1     -32.251  63.488   8.853  0.00  0.00    +0.028 C 
BRANCH   5   7
ATOM      7  N   ALA A   1     -31.942  65.664   9.923  0.00  0.00    -0.238 NA
ATOM      8  H   ALA A   1     -32.915  65.501  10.252  0.00  0.00    +0.142 HD
ENDBRANCH   5   7
ENDBRANCH   1   5
BRANCH   3   9
ATOM      9  CA  GLU A   2     -30.935  66.668   5.985  0.00  0.00    +0.137 C 
BRANCH   9  10
ATOM     10  C   GLU A   2     -29.629  67.411   6.241  0.00  0.00    +0.227 C 
ATOM     11  O   GLU A   2     -28.690  67.331   5.452  0.00  0.00    -0.286 OA
ENDBRANCH   9  10
BRANCH   9  12
ATOM     12  CB  GLU A   2     -31.982  67.675   5.498  0.00  0.00    +0.039 C 
BRANCH  12  13
ATOM     13  CG  GLU A   2     -33.395  67.428   6.008  0.00  0.00    +0.116 C 
BRANCH  13  14
ATOM     14  CD  GLU A   2     -34.309  68.626   5.798  0.00  0.00    +0.365 C 
ATOM     15  OE2 GLU A   2     -34.053  69.693   6.409  0.00  0.00    -0.246 OA
ATOM     16  OE1 GLU A   2     -35.279  68.499   5.020  0.00  0.00    -0.246 OA
ENDBRANCH  13  14
ENDBRANCH  12  13
ENDBRANCH   9  12
ENDBRANCH   3   9
TORSDOF 7
REMARK  Name = ../refined-set-2016/2oax/2oax_pocket.pdb
REMARK  278 active torsions:
REMARK  status: ('A' for Active; 'I' for Inactive)
REMARK    1  A    between atoms: _1  and  _3
REMARK    2  A    between atoms: _3  and  _4
REMARK    3  A    between atoms: _7  and  _9
REMARK    4  A    between atoms: _9  and  _10
REMARK    5  A    between atoms: _9  and  _12
REMARK    6  A    between atoms: _12  and  _13
REMARK    7  A    between atoms: _13  and  _14
REMARK    8  A    between atoms: _17  and  _19
REMARK    9  A    between atoms: _19  and  _20
REMARK   10  A    between atoms: _19  and  _22
REMARK   11  A    between atoms: _22  and  _23
REMARK   12  A    between atoms: _26  and  _28
REMARK   13  A    between atoms: _28  and  _29
REMARK   14  A    between atoms: _28  and  _31
REMARK   15  A    between atoms: _31  and  _32
REMARK   16  A    between atoms: _35  and  _37
REMARK   17  A    between atoms: _37  and  _38
REMARK   18  A    between atoms: _37  and  _40
REMARK   19  A    between atoms: _40  and  _41
REMARK   20  A    between atoms: _43  and  _45
REMARK   21  A    between atoms: _45  and  _46
REMARK   22  A    between atoms: _45  and  _48
REMARK   23  A    between atoms: _48  and  _49
REMARK   24  A    between atoms: _52  and  _54
REMARK   25  A    between atoms: _54  and  _55
REMARK   26  A    between atoms: _54  and  _57
REMARK   27  A    between atoms: _57  and  _58
REMARK   28  A    between atoms: _61  and  _63
REMARK   29  A    between atoms: _63  and  _64
REMARK   30  A    between atoms: _63  and  _66
REMARK   31  A    between atoms: _66  and  _67
REMARK   32  A    between atoms: _72  and  _74
REMARK   33  A    between atoms: _74  and  _75
REMARK   34  A    between atoms: _74  and  _77
REMARK   35  A    between atoms: _77  and  _78
REMARK   36  A    between atoms: _78  and  _79
REMARK   37  A    between atoms: _79  and  _80
REMARK   38  A    between atoms: _89  and  _91
REMARK   39  A    between atoms: _91  and  _92
REMARK   40  A    between atoms: _91  and  _94
REMARK   41  A    between atoms: _94  and  _95
REMARK   42  A    between atoms: _98  and  _100
REMARK   43  A    between atoms: _100  and  _101
REMARK   44  A    between atoms: _104  and  _106
REMARK   45  A    between atoms: _106  and  _107
REMARK   46  A    between atoms: _109  and  _111
REMARK   47  A    between atoms: _111  and  _112
REMARK   48  A    between atoms: _111  and  _114
REMARK   49  A    between atoms: _114  and  _115
REMARK   50  A    between atoms: _115  and  _116
REMARK   51  A    between atoms: _116  and  _117
REMARK   52  A    between atoms: _117  and  _118
REMARK   53  A    between atoms: _122  and  _124
REMARK   54  A    between atoms: _124  and  _125
REMARK   55  A    between atoms: _124  and  _127
REMARK   56  A    between atoms: _127  and  _128
REMARK   57  A    between atoms: _128  and  _129
REMARK   58  A    between atoms: _134  and  _136
REMARK   59  A    between atoms: _136  and  _137
REMARK   60  A    between atoms: _136  and  _139
REMARK   61  A    between atoms: _139  and  _140
REMARK   62  A    between atoms: _140  and  _141
REMARK   63  A    between atoms: _143  and  _145
REMARK   64  A    between atoms: _145  and  _146
REMARK   65  A    between atoms: _145  and  _148
REMARK   66  A    between atoms: _148  and  _149
REMARK   67  A    between atoms: _159  and  _161
REMARK   68  A    between atoms: _161  and  _162
REMARK   69  A    between atoms: _161  and  _164
REMARK   70  A    between atoms: _164  and  _165
REMARK   71  A    between atoms: _165  and  _166
REMARK   72  A    between atoms: _168  and  _170
REMARK   73  A    between atoms: _170  and  _171
REMARK   74  A    between atoms: _170  and  _173
REMARK   75  A    between atoms: _175  and  _177
REMARK   76  A    between atoms: _177  and  _178
REMARK   77  A    between atoms: _177  and  _180
REMARK   78  A    between atoms: _180  and  _181
REMARK   79  A    between atoms: _184  and  _186
REMARK   80  A    between atoms: _186  and  _187
REMARK   81  A    between atoms: _186  and  _189
REMARK   82  A    between atoms: _189  and  _190
REMARK   83  A    between atoms: _193  and  _195
REMARK   84  A    between atoms: _195  and  _196
REMARK   85  A    between atoms: _195  and  _198
REMARK   86  A    between atoms: _198  and  _199
REMARK   87  A    between atoms: _201  and  _203
REMARK   88  A    between atoms: _203  and  _204
REMARK   89  A    between atoms: _203  and  _206
REMARK   90  A    between atoms: _206  and  _207
REMARK   91  A    between atoms: _213  and  _215
REMARK   92  A    between atoms: _215  and  _216
REMARK   93  A    between atoms: _219  and  _221
REMARK   94  A    between atoms: _221  and  _222
REMARK   95  A    between atoms: _221  and  _224
REMARK   96  A    between atoms: _224  and  _225
REMARK   97  A    between atoms: _228  and  _230
REMARK   98  A    between atoms: _230  and  _231
REMARK   99  A    between atoms: _230  and  _233
REMARK  100  A    between atoms: _233  and  _234
REMARK  101  A    between atoms: _236  and  _238
REMARK  102  A    between atoms: _238  and  _239
REMARK  103  A    between atoms: _238  and  _241
REMARK  104  A    between atoms: _241  and  _242
REMARK  105  A    between atoms: _252  and  _254
REMARK  106  A    between atoms: _254  and  _255
REMARK  107  A    between atoms: _254  and  _257
REMARK  108  A    between atoms: _257  and  _258
REMARK  109  A    between atoms: _258  and  _259
REMARK  110  A    between atoms: _259  and  _260
REMARK  111  A    between atoms: _269  and  _271
REMARK  112  A    between atoms: _271  and  _272
REMARK  113  A    between atoms: _271  and  _274
REMARK  114  A    between atoms: _274  and  _275
REMARK  115  A    between atoms: _277  and  _279
REMARK  116  A    between atoms: _279  and  _280
REMARK  117  A    between atoms: _279  and  _282
REMARK  118  A    between atoms: _282  and  _283
REMARK  119  A    between atoms: _286  and  _288
REMARK  120  A    between atoms: _288  and  _289
REMARK  121  A    between atoms: _288  and  _291
REMARK  122  A    between atoms: _291  and  _292
REMARK  123  A    between atoms: _297  and  _298
REMARK  124  A    between atoms: _300  and  _302
REMARK  125  A    between atoms: _302  and  _303
REMARK  126  A    between atoms: _302  and  _305
REMARK  127  A    between atoms: _305  and  _306
REMARK  128  A    between atoms: _312  and  _314
REMARK  129  A    between atoms: _314  and  _315
REMARK  130  A    between atoms: _318  and  _320
REMARK  131  A    between atoms: _320  and  _321
REMARK  132  A    between atoms: _320  and  _323
REMARK  133  A    between atoms: _323  and  _324
REMARK  134  A    between atoms: _327  and  _329
REMARK  135  A    between atoms: _329  and  _330
REMARK  136  A    between atoms: _329  and  _332
REMARK  137  A    between atoms: _332  and  _333
REMARK  138  A    between atoms: _339  and  _341
REMARK  139  A    between atoms: _341  and  _342
REMARK  140  A    between atoms: _341  and  _344
REMARK  141  A    between atoms: _344  and  _345
REMARK  142  A    between atoms: _345  and  _346
REMARK  143  A    between atoms: _348  and  _350
REMARK  144  A    between atoms: _350  and  _351
REMARK  145  A    between atoms: _350  and  _353
REMARK  146  A    between atoms: _353  and  _354
REMARK  147  A    between atoms: _356  and  _358
REMARK  148  A    between atoms: _358  and  _359
REMARK  149  A    between atoms: _362  and  _364
REMARK  150  A    between atoms: _364  and  _365
REMARK  151  A    between atoms: _364  and  _367
REMARK  152  A    between atoms: _367  and  _368
REMARK  153  A    between atoms: _368  and  _369
REMARK  154  A    between atoms: _371  and  _373
REMARK  155  A    between atoms: _373  and  _374
REMARK  156  A    between atoms: _373  and  _376
REMARK  157  A    between atoms: _376  and  _377
REMARK  158  A    between atoms: _382  and  _383
REMARK  159  A    between atoms: _385  and  _387
REMARK  160  A    between atoms: _387  and  _388
REMARK  161  A    between atoms: _387  and  _390
REMARK  162  A    between atoms: _390  and  _391
REMARK  163  A    between atoms: _391  and  _392
REMARK  164  A    between atoms: _395  and  _397
REMARK  165  A    between atoms: _397  and  _398
REMARK  166  A    between atoms: _397  and  _400
REMARK  167  A    between atoms: _400  and  _401
REMARK  168  A    between atoms: _404  and  _406
REMARK  169  A    between atoms: _406  and  _407
REMARK  170  A    between atoms: _406  and  _409
REMARK  171  A    between atoms: _411  and  _413
REMARK  172  A    between atoms: _413  and  _414
REMARK  173  A    between atoms: _413  and  _416
REMARK  174  A    between atoms: _416  and  _417
REMARK  175  A    between atoms: _417  and  _418
REMARK  176  A    between atoms: _423  and  _425
REMARK  177  A    between atoms: _425  and  _426
REMARK  178  A    between atoms: _428  and  _430
REMARK  179  A    between atoms: _430  and  _431
REMARK  180  A    between atoms: _430  and  _433
REMARK  181  A    between atoms: _433  and  _434
REMARK  182  A    between atoms: _434  and  _435
REMARK  183  A    between atoms: _437  and  _439
REMARK  184  A    between atoms: _439  and  _440
REMARK  185  A    between atoms: _439  and  _442
REMARK  186  A    between atoms: _442  and  _443
REMARK  187  A    between atoms: _448  and  _450
REMARK  188  A    between atoms: _450  and  _451
REMARK  189  A    between atoms: _450  and  _453
REMARK  190  A    between atoms: _453  and  _454
REMARK  191  A    between atoms: _454  and  _455
REMARK  192  A    between atoms: _457  and  _459
REMARK  193  A    between atoms: _459  and  _460
REMARK  194  A    between atoms: _459  and  _462
REMARK  195  A    between atoms: _462  and  _463
REMARK  196  A    between atoms: _466  and  _468
REMARK  197  A    between atoms: _468  and  _469
REMARK  198  A    between atoms: _468  and  _471
REMARK  199  A    between atoms: _474  and  _476
REMARK  200  A    between atoms: _476  and  _477
REMARK  201  A    between atoms: _476  and  _479
REMARK  202  A    between atoms: _479  and  _480
REMARK  203  A    between atoms: _483  and  _485
REMARK  204  A    between atoms: _485  and  _486
REMARK  205  A    between atoms: _485  and  _488
REMARK  206  A    between atoms: _488  and  _489
REMARK  207  A    between atoms: _492  and  _494
REMARK  208  A    between atoms: _494  and  _495
REMARK  209  A    between atoms: _494  and  _497
REMARK  210  A    between atoms: _497  and  _498
REMARK  211  A    between atoms: _501  and  _503
REMARK  212  A    between atoms: _503  and  _504
REMARK  213  A    between atoms: _503  and  _506
REMARK  214  A    between atoms: _506  and  _507
REMARK  215  A    between atoms: _507  and  _508
REMARK  216  A    between atoms: _511  and  _513
REMARK  217  A    between atoms: _513  and  _514
REMARK  218  A    between atoms: _513  and  _516
REMARK  219  A    between atoms: _516  and  _517
REMARK  220  A    between atoms: _523  and  _525
REMARK  221  A    between atoms: _525  and  _526
REMARK  222  A    between atoms: _525  and  _528
REMARK  223  A    between atoms: _530  and  _532
REMARK  224  A    between atoms: _532  and  _533
REMARK  225  A    between atoms: _532  and  _535
REMARK  226  A    between atoms: _535  and  _536
REMARK  227  A    between atoms: _542  and  _544
REMARK  228  A    between atoms: _544  and  _545
REMARK  229  A    between atoms: _544  and  _547
REMARK  230  A    between atoms: _547  and  _548
REMARK  231  A    between atoms: _553  and  _554
REMARK  232  A    between atoms: _556  and  _558
REMARK  233  A    between atoms: _558  and  _559
REMARK  234  A    between atoms: _558  and  _561
REMARK  235  A    between atoms: _561  and  _562
REMARK  236  A    between atoms: _565  and  _567
REMARK  237  A    between atoms: _567  and  _568
REMARK  238  A    between atoms: _567  and  _570
REMARK  239  A    between atoms: _570  and  _571
REMARK  240  A    between atoms: _577  and  _579
REMARK  241  A    between atoms: _579  and  _580
REMARK  242  A    between atoms: _579  and  _582
REMARK  243  A    between atoms: _582  and  _583
REMARK  244  A    between atoms: _583  and  _584
REMARK  245  A    between atoms: _584  and  _585
REMARK  246  A    between atoms: _594  and  _596
REMARK  247  A    between atoms: _596  and  _597
REMARK  248  A    between atoms: _596  and  _599
REMARK  249  A    between atoms: _599  and  _600
REMARK  250  A    between atoms: _600  and  _601
REMARK  251  A    between atoms: _604  and  _606
REMARK  252  A    between atoms: _606  and  _607
REMARK  253  A    between atoms: _606  and  _609
REMARK  254  A    between atoms: _609  and  _610
REMARK  255  A    between atoms: _612  and  _614
REMARK  256  A    between atoms: _614  and  _615
REMARK  257  A    between atoms: _614  and  _617
REMARK  258  A    between atoms: _617  and  _618
REMARK  259  A    between atoms: _621  and  _623
REMARK  260  A    between atoms: _623  and  _624
REMARK  261  A    between atoms: _623  and  _626
REMARK  262  A    between atoms: _629  and  _631
REMARK  263  A    between atoms: _631  and  _632
REMARK  264  A    between atoms: _631  and  _634
REMARK  265  A    between atoms: _634  and  _635
REMARK  266  A    between atoms: _635  and  _636
REMARK  267  A    between atoms: _639  and  _641
REMARK  268  A    between atoms: _641  and  _642
REMARK  269  A    between atoms: _641  and  _644
REMARK  270  A    between atoms: _644  and  _645
REMARK  271  A    between atoms: _651  and  _653
REMARK  272  A    between atoms: _653  and  _654
REMARK  273  A    between atoms: _653  and  _656
REMARK  274  A    between atoms: _656  and  _657
REMARK  275  A    between atoms: _660  and  _662
REMARK  276  A    between atoms: _662  and  _663
REMARK  277  A    between atoms: _662  and  _665
REMARK  278  A    between atoms: _665  and  _666
REMARK                            x       y       z     vdW  Elec       q    Type
REMARK                         _______ _______ _______ _____ _____    ______ ____
ROOT
ATOM      1  CA  ARG A   7     -19.805  69.184   1.999  0.00  0.00    +0.149 C 
ENDROOT
BRANCH   1   3
ATOM      2  C   ASN A   6     -20.377  66.867   1.613  0.00  0.00    +0.241 C 
ATOM      3  N   ARG A   7     -20.637  68.016   2.229  0.00  0.00    -0.297 N 
ATOM      4  H   ARG A   7     -21.444  68.079   2.882  0.00  0.00    +0.150 HD
ATOM      5  O   ASN A   6     -19.452  66.733   0.805  0.00  0.00    -0.273 OA
BRANCH   2   6
ATOM      6  CA  ASN A   6     -21.297  65.699   1.952  0.00  0.00    +0.158 C 
BRANCH   6   9
ATOM      7  C   LEU A   5     -20.661  65.460   4.274  0.00  0.00    +0.241 C 
ATOM      8  O   LEU A   5     -19.492  65.283   3.942  0.00  0.00    -0.273 OA
ATOM      9  N   ASN A   6     -21.623  65.673   3.379  0.00  0.00    -0.297 N 
ATOM     10  H   ASN A   6     -22.604  65.821   3.693  0.00  0.00    +0.150 HD
BRANCH   7  11
ATOM     11  CA  LEU A   5     -21.051  65.452   5.751  0.00  0.00    +0.149 C 
BRANCH  11  13
ATOM     12  C   THR A   4     -21.698  67.783   5.839  0.00  0.00    +0.243 C 
ATOM     13  N   LEU A   5     -22.020  66.504   6.019  0.00  0.00    -0.297 N 
ATOM     14  H   LEU A   5     -22.972  66.254   6.354  0.00  0.00    +0.150 HD
ATOM     15  O   THR A   4     -20.580  68.149   5.463  0.00  0.00    -0.273 OA
BRANCH  12  16
ATOM     16  CA  THR A   4     -22.793  68.799   6.122  0.00  0.00    +0.176 C 
BRANCH  16  18
ATOM     17  C   SER A   3     -24.105  68.188   4.171  0.00  0.00    +0.243 C 
ATOM     18  N   THR A   4     -24.016  68.329   5.489  0.00  0.00    -0.295 N 
ATOM     19  H   THR A   4     -24.839  68.098   6.082  0.00  0.00    +0.150 HD
ATOM     20  O   SER A   3     -23.180  68.456   3.401  0.00  0.00    -0.273 OA
BRANCH  17  21
ATOM     21  CA  SER A   3     -25.445  67.679   3.649  0.00  0.00    +0.178 C 
BRANCH  21  23
ATOM     22  C   LEU A   2     -25.265  65.484   4.676  0.00  0.00    +0.241 C 
ATOM     23  N   SER A   3     -25.928  66.635   4.551  0.00  0.00    -0.295 N 
ATOM     24  H   SER A   3     -26.797  66.791   5.101  0.00  0.00    +0.150 HD
ATOM     25  O   LEU A   2     -24.244  65.233   4.041  0.00  0.00    -0.273 OA
BRANCH  22  26
ATOM     26  CA  LEU A   2     -25.821  64.462   5.651  0.00  0.00    +0.149 C 
BRANCH  26  29
ATOM     27  C   LEU A   1     -25.427  65.670   7.721  0.00  0.00    +0.238 C 
ATOM     28  O   LEU A   1     -24.229  65.800   7.483  0.00  0.00    -0.274 OA
ATOM     29  N   LEU A   2     -26.270  65.056   6.900  0.00  0.00    -0.297 N 
ATOM     30  H   LEU A   2     -27.276  64.998   7.156  0.00  0.00    +0.150 HD
BRANCH  27  31
ATOM     31  CA  LEU A   1     -26.030  66.211   9.010  0.00  0.00    +0.145 C 
BRANCH  31  32
ATOM     32  N   LEU A   1     -27.178  67.089   8.775  0.00  0.00    -0.238 NA
ATOM     33  H   LEU A   1     -28.041  66.957   9.341  0.00  0.00    +0.142 HD
ENDBRANCH  31  32
BRANCH  31  34
ATOM     34  CB  LEU A   1     -26.416  65.014   9.883  0.00  0.00    +0.026 C 
BRANCH  34  35
ATOM     35  CG  LEU A   1     -26.690  65.156  11.379  0.00  0.00    +0.002 C 
ATOM     36  CD2 LEU A   1     -25.503  65.826  12.073  0.00  0.00    +0.000 C 
ATOM     37  CD1 LEU A   1     -27.970  65.947  11.576  0.00  0.00    +0.000 C 
ENDBRANCH  34  35
ENDBRANCH  31  34
ENDBRANCH  27  31
ENDBRANCH  26  29
BRANCH  26  38
ATOM     38  CB  LEU A   2     -26.965  63.668   5.003  0.00  0.00    +0.029 C 
BRANCH  38  39
ATOM     39  CG  LEU A   2     -27.562  62.573   5.899  0.00  0.00    +0.002 C 
ATOM     40  CD2 LEU A   2     -26.530  61.507   6.162  0.00  0.00    +0.000 C 
ATOM     41  CD1 LEU A   2     -28.775  61.958   5.244  0.00  0.00    +0.000 C 
ENDBRANCH  38  39
ENDBRANCH  26  38
ENDBRANCH  22  26
ENDBRANCH  21  23
BRANCH  21  42
ATOM     42  CB  SER A   3     -26.422  68.858   3.591  0.00  0.00    +0.166 C 
BRANCH  42  43
ATOM     43  OG  SER A   3     -27.721  68.451   3.222  0.00  0.00    -0.380 OA
ATOM     44  H   SER A   3     -28.062  67.799   3.884  0.00  0.00    +0.211 HD
ENDBRANCH  42  43
ENDBRANCH  21  42
ENDBRANCH  17  21
ENDBRANCH  16  18
BRANCH  16  45
ATOM     45  CB  THR A   4     -22.975  68.955   7.651  0.00  0.00    +0.137 C 
ATOM     46  CG2 THR A   4     -21.655  69.288   8.315  0.00  0.00    +0.034 C 
BRANCH  45  47
ATOM     47  OG1 THR A   4     -23.915  70.006   7.915  0.00  0.00    -0.382 OA
ATOM     48  HG1 THR A   4     -24.785  69.781   7.499  0.00  0.00    +0.210 HD
ENDBRANCH  45  47
ENDBRANCH  16  45
ENDBRANCH  12  16
ENDBRANCH  11  13
BRANCH  11  49
ATOM     49  CB  LEU A   5     -21.605  64.075   6.149  0.00  0.00    +0.029 C 
BRANCH  49  50
ATOM     50  CG  LEU A   5     -21.759  63.806   7.657  0.00  0.00    +0.002 C 
ATOM     51  CD2 LEU A   5     -20.435  64.084   8.382  0.00  0.00    +0.000 C 
ATOM     52  CD1 LEU A   5     -22.182  62.361   7.889  0.00  0.00    +0.000 C 
ENDBRANCH  49  50
ENDBRANCH  11  49
ENDBRANCH   7  11
ENDBRANCH   6   9
BRANCH   6  53
ATOM     53  CB  ASN A   6     -22.560  65.777   1.088  0.00  0.00    +0.114 C 
BRANCH  53  54
ATOM     54  CG  ASN A   6     -23.140  64.403   0.769  0.00  0.00    +0.222 C 
ATOM     55  OD1 ASN A   6     -22.542  63.372   1.085  0.00  0.00    -0.275 OA
ATOM     56  ND2 ASN A   6     -24.301  64.388   0.118  0.00  0.00    -0.329 N 
ATOM     57 HD21 ASN A   6     -24.771  65.283  -0.129  0.00  0.00    +0.145 HD
ATOM     58 HD22 ASN A   6     -24.739  63.482  -0.144  0.00  0.00    +0.145 HD
ENDBRANCH  53  54
ENDBRANCH   6  53
ENDBRANCH   2   6
ENDBRANCH   1   3
BRANCH   1  59
ATOM     59  C   ARG A   7     -18.447  68.879   2.619  0.00  0.00    +0.241 C 
ATOM     60  N   LEU A   8     -18.460  68.282   3.808  0.00  0.00    -0.297 N 
ATOM     61  H   LEU A   8     -19.367  68.085   4.278  0.00  0.00    +0.150 HD
ATOM     62  O   ARG A   7     -17.404  69.175   2.033  0.00  0.00    -0.273 OA
BRANCH  60  63
ATOM     63  CA  LEU A   8     -17.212  67.902   4.456  0.00  0.00    +0.149 C 
BRANCH  63  64
ATOM     64  C   LEU A   8     -16.449  67.046   3.439  0.00  0.00    +0.241 C 
ATOM     65  O   LEU A   8     -15.267  67.266   3.177  0.00  0.00    -0.273 OA
ATOM     66  N   ALA A   9     -17.159  66.088   2.851  0.00  0.00    -0.297 N 
ATOM     67  H   ALA A   9     -18.160  65.979   3.111  0.00  0.00    +0.150 HD
BRANCH  66  68
ATOM     68  CA  ALA A   9     -16.593  65.185   1.858  0.00  0.00    +0.149 C 
ATOM     69  CB  ALA A   9     -17.680  64.259   1.317  0.00  0.00    +0.031 C 
BRANCH  68  70
ATOM     70  C   ALA A   9     -15.949  65.941   0.707  0.00  0.00    +0.241 C 
ATOM     71  O   ALA A   9     -14.837  65.620   0.291  0.00  0.00    -0.273 OA
ATOM     72  N   GLY A  10     -16.666  66.929   0.180  0.00  0.00    -0.295 N 
ATOM     73  H   GLY A  10     -17.608  67.144   0.564  0.00  0.00    +0.150 HD
BRANCH  72  74
ATOM     74  CA  GLY A  10     -16.144  67.708  -0.925  0.00  0.00    +0.176 C 
BRANCH  74  75
ATOM     75  C   GLY A  10     -14.857  68.402  -0.541  0.00  0.00    +0.243 C 
ATOM     76  N   LYS A  11     -14.801  68.895   0.692  0.00  0.00    -0.297 N 
ATOM     77  H   LYS A  11     -15.624  68.784   1.318  0.00  0.00    +0.150 HD
ATOM     78  O   GLY A  10     -13.930  68.484  -1.340  0.00  0.00    -0.273 OA
BRANCH  76  79
ATOM     79  CA  LYS A  11     -13.620  69.586   1.193  0.00  0.00    +0.149 C 
BRANCH  79  80
ATOM     80  C   LYS A  11     -12.421  68.638   1.317  0.00  0.00    +0.241 C 
ATOM     81  N   GLN A  12     -12.624  67.466   1.914  0.00  0.00    -0.297 N 
ATOM     82  H   GLN A  12     -13.571  67.222   2.267  0.00  0.00    +0.150 HD
ATOM     83  O   LYS A  11     -11.323  68.960   0.862  0.00  0.00    -0.273 OA
BRANCH  81  84
ATOM     84  CA  GLN A  12     -11.521  66.520   2.076  0.00  0.00    +0.149 C 
BRANCH  84  85
ATOM     85  C   GLN A  12     -10.986  66.039   0.730  0.00  0.00    +0.241 C 
ATOM     86  O   GLN A  12      -9.778  65.857   0.563  0.00  0.00    -0.273 OA
ATOM     87  N   MET A  13     -11.876  65.848  -0.238  0.00  0.00    -0.298 N 
ATOM     88  H   MET A  13     -12.886  66.017  -0.055  0.00  0.00    +0.150 HD
BRANCH  87  89
ATOM     89  CA  MET A  13     -11.441  65.402  -1.554  0.00  0.00    +0.138 C 
BRANCH  89  90
ATOM     90  C   MET A  13     -10.452  66.390  -2.178  0.00  0.00    +0.227 C 
ATOM     91  O   MET A  13      -9.557  66.006  -2.937  0.00  0.00    -0.286 OA
ENDBRANCH  89  90
BRANCH  89  92
ATOM     92  CB  MET A  13     -12.649  65.195  -2.466  0.00  0.00    +0.039 C 
BRANCH  92  93
ATOM     93  CG  MET A  13     -13.437  63.945  -2.128  0.00  0.00    +0.060 C 
BRANCH  93  94
ATOM     94  SD  MET A  13     -12.380  62.495  -2.153  0.00  0.00    -0.139 S 
ATOM     95  CE  MET A  13     -12.038  62.377  -3.887  0.00  0.00    +0.069 C 
ENDBRANCH  93  94
ENDBRANCH  92  93
ENDBRANCH  89  92
ENDBRANCH  87  89
ENDBRANCH  84  85
BRANCH  84  96
ATOM     96  CB  GLN A  12     -11.955  65.331   2.943  0.00  0.00    +0.039 C 
BRANCH  96  97
ATOM     97  CG  GLN A  12     -12.404  65.739   4.353  0.00  0.00    +0.087 C 
BRANCH  97  98
ATOM     98  CD  GLN A  12     -12.853  64.565   5.202  0.00  0.00    +0.219 C 
ATOM     99  NE2 GLN A  12     -13.190  64.837   6.460  0.00  0.00    -0.329 N 
ATOM    100 HE21 GLN A  12     -13.511  64.074   7.089  0.00  0.00    +0.145 HD
ATOM    101 HE22 GLN A  12     -13.132  65.813   6.814  0.00  0.00    +0.145 HD
ATOM    102  OE1 GLN A  12     -12.904  63.424   4.733  0.00  0.00    -0.275 OA
ENDBRANCH  97  98
ENDBRANCH  96  97
ENDBRANCH  84  96
ENDBRANCH  81  84
ENDBRANCH  79  80
BRANCH  79 103
ATOM    103  CB  LYS A  11     -13.935  70.229   2.551  0.00  0.00    +0.029 C 
BRANCH 103 104
ATOM    104  CG  LYS A  11     -15.055  71.275   2.510  0.00  0.00    +0.000 C 
BRANCH 104 105
ATOM    105  CD  LYS A  11     -14.540  72.696   2.245  0.00  0.00    -0.024 C 
BRANCH 105 106
ATOM    106  CE  LYS A  11     -15.686  73.645   1.848  0.00  0.00    -0.086 C 
BRANCH 106 107
ATOM    107  NZ  LYS A  11     -16.840  73.635   2.809  0.00  0.00    +0.380 N 
ATOM    108  HZ1 LYS A  11     -16.508  73.927   3.750  0.00  0.00    -0.089 HD
ATOM    109  HZ2 LYS A  11     -17.237  72.675   2.862  0.00  0.00    -0.089 HD
ATOM    110  HZ3 LYS A  11     -17.571  74.296   2.478  0.00  0.00    -0.089 HD
ENDBRANCH 106 107
ENDBRANCH 105 106
ENDBRANCH 104 105
ENDBRANCH 103 104
ENDBRANCH  79 103
ENDBRANCH  76  79
ENDBRANCH  74  75
ENDBRANCH  72  74
ENDBRANCH  68  70
ENDBRANCH  66  68
ENDBRANCH  63  64
BRANCH  63 111
ATOM    111  CB  LEU A   8     -17.493  67.093   5.729  0.00  0.00    +0.029 C 
BRANCH 111 112
ATOM    112  CG  LEU A   8     -16.294  66.594   6.548  0.00  0.00    +0.002 C 
ATOM    113  CD2 LEU A   8     -16.789  65.959   7.841  0.00  0.00    +0.000 C 
ATOM    114  CD1 LEU A   8     -15.344  67.744   6.851  0.00  0.00    +0.000 C 
ENDBRANCH 111 112
ENDBRANCH  63 111
ENDBRANCH  60  63
ENDBRANCH   1  59
BRANCH   1 115
ATOM    115  CB  ARG A   7     -20.428  70.418   2.643  0.00  0.00    +0.033 C 
BRANCH 115 116
ATOM    116  CG  ARG A   7     -19.812  71.714   2.164  0.00  0.00    +0.045 C 
BRANCH 116 117
ATOM    117  CD  ARG A   7     -20.627  72.881   2.654  0.00  0.00    +0.174 C 
BRANCH 117 118
ATOM    118  NE  ARG A   7     -22.054  72.631   2.475  0.00  0.00    -0.265 N 
ATOM    119  CZ  ARG A   7     -22.914  72.479   3.475  0.00  0.00    +0.342 C 
ATOM    120  NH2 ARG A   7     -22.487  72.555   4.732  0.00  0.00    -0.292 N 
ATOM    121 HH21 ARG A   7     -23.158  72.436   5.517  0.00  0.00    +0.255 HD
ATOM    122 HH22 ARG A   7     -21.482  72.733   4.930  0.00  0.00    +0.255 HD
ATOM    123  NH1 ARG A   7     -24.197  72.249   3.218  0.00  0.00    -0.292 N 
ATOM    124 HH11 ARG A   7     -24.871  72.130   4.001  0.00  0.00    +0.255 HD
ATOM    125 HH12 ARG A   7     -24.527  72.188   2.234  0.00  0.00    +0.255 HD
ATOM    126  HE  ARG A   7     -22.420  72.568   1.504  0.00  0.00    +0.259 HD
ENDBRANCH 117 118
ENDBRANCH 116 117
ENDBRANCH 115 116
ENDBRANCH   1 115
TORSDOF 55
REMARK  Name = ../refined-set-2016/2oax/2oax_pocket.pdb
REMARK  278 active torsions:
REMARK  status: ('A' for Active; 'I' for Inactive)
REMARK    1  A    between atoms: _1  and  _3
REMARK    2  A    between atoms: _3  and  _4
REMARK    3  A    between atoms: _7  and  _9
REMARK    4  A    between atoms: _9  and  _10
REMARK    5  A    between atoms: _9  and  _12
REMARK    6  A    between atoms: _12  and  _13
REMARK    7  A    between atoms: _13  and  _14
REMARK    8  A    between atoms: _17  and  _19
REMARK    9  A    between atoms: _19  and  _20
REMARK   10  A    between atoms: _19  and  _22
REMARK   11  A    between atoms: _22  and  _23
REMARK   12  A    between atoms: _26  and  _28
REMARK   13  A    between atoms: _28  and  _29
REMARK   14  A    between atoms: _28  and  _31
REMARK   15  A    between atoms: _31  and  _32
REMARK   16  A    between atoms: _35  and  _37
REMARK   17  A    between atoms: _37  and  _38
REMARK   18  A    between atoms: _37  and  _40
REMARK   19  A    between atoms: _40  and  _41
REMARK   20  A    between atoms: _43  and  _45
REMARK   21  A    between atoms: _45  and  _46
REMARK   22  A    between atoms: _45  and  _48
REMARK   23  A    between atoms: _48  and  _49
REMARK   24  A    between atoms: _52  and  _54
REMARK   25  A    between atoms: _54  and  _55
REMARK   26  A    between atoms: _54  and  _57
REMARK   27  A    between atoms: _57  and  _58
REMARK   28  A    between atoms: _61  and  _63
REMARK   29  A    between atoms: _63  and  _64
REMARK   30  A    between atoms: _63  and  _66
REMARK   31  A    between atoms: _66  and  _67
REMARK   32  A    between atoms: _72  and  _74
REMARK   33  A    between atoms: _74  and  _75
REMARK   34  A    between atoms: _74  and  _77
REMARK   35  A    between atoms: _77  and  _78
REMARK   36  A    between atoms: _78  and  _79
REMARK   37  A    between atoms: _79  and  _80
REMARK   38  A    between atoms: _89  and  _91
REMARK   39  A    between atoms: _91  and  _92
REMARK   40  A    between atoms: _91  and  _94
REMARK   41  A    between atoms: _94  and  _95
REMARK   42  A    between atoms: _98  and  _100
REMARK   43  A    between atoms: _100  and  _101
REMARK   44  A    between atoms: _104  and  _106
REMARK   45  A    between atoms: _106  and  _107
REMARK   46  A    between atoms: _109  and  _111
REMARK   47  A    between atoms: _111  and  _112
REMARK   48  A    between atoms: _111  and  _114
REMARK   49  A    between atoms: _114  and  _115
REMARK   50  A    between atoms: _115  and  _116
REMARK   51  A    between atoms: _116  and  _117
REMARK   52  A    between atoms: _117  and  _118
REMARK   53  A    between atoms: _122  and  _124
REMARK   54  A    between atoms: _124  and  _125
REMARK   55  A    between atoms: _124  and  _127
REMARK   56  A    between atoms: _127  and  _128
REMARK   57  A    between atoms: _128  and  _129
REMARK   58  A    between atoms: _134  and  _136
REMARK   59  A    between atoms: _136  and  _137
REMARK   60  A    between atoms: _136  and  _139
REMARK   61  A    between atoms: _139  and  _140
REMARK   62  A    between atoms: _140  and  _141
REMARK   63  A    between atoms: _143  and  _145
REMARK   64  A    between atoms: _145  and  _146
REMARK   65  A    between atoms: _145  and  _148
REMARK   66  A    between atoms: _148  and  _149
REMARK   67  A    between atoms: _159  and  _161
REMARK   68  A    between atoms: _161  and  _162
REMARK   69  A    between atoms: _161  and  _164
REMARK   70  A    between atoms: _164  and  _165
REMARK   71  A    between atoms: _165  and  _166
REMARK   72  A    between atoms: _168  and  _170
REMARK   73  A    between atoms: _170  and  _171
REMARK   74  A    between atoms: _170  and  _173
REMARK   75  A    between atoms: _175  and  _177
REMARK   76  A    between atoms: _177  and  _178
REMARK   77  A    between atoms: _177  and  _180
REMARK   78  A    between atoms: _180  and  _181
REMARK   79  A    between atoms: _184  and  _186
REMARK   80  A    between atoms: _186  and  _187
REMARK   81  A    between atoms: _186  and  _189
REMARK   82  A    between atoms: _189  and  _190
REMARK   83  A    between atoms: _193  and  _195
REMARK   84  A    between atoms: _195  and  _196
REMARK   85  A    between atoms: _195  and  _198
REMARK   86  A    between atoms: _198  and  _199
REMARK   87  A    between atoms: _201  and  _203
REMARK   88  A    between atoms: _203  and  _204
REMARK   89  A    between atoms: _203  and  _206
REMARK   90  A    between atoms: _206  and  _207
REMARK   91  A    between atoms: _213  and  _215
REMARK   92  A    between atoms: _215  and  _216
REMARK   93  A    between atoms: _219  and  _221
REMARK   94  A    between atoms: _221  and  _222
REMARK   95  A    between atoms: _221  and  _224
REMARK   96  A    between atoms: _224  and  _225
REMARK   97  A    between atoms: _228  and  _230
REMARK   98  A    between atoms: _230  and  _231
REMARK   99  A    between atoms: _230  and  _233
REMARK  100  A    between atoms: _233  and  _234
REMARK  101  A    between atoms: _236  and  _238
REMARK  102  A    between atoms: _238  and  _239
REMARK  103  A    between atoms: _238  and  _241
REMARK  104  A    between atoms: _241  and  _242
REMARK  105  A    between atoms: _252  and  _254
REMARK  106  A    between atoms: _254  and  _255
REMARK  107  A    between atoms: _254  and  _257
REMARK  108  A    between atoms: _257  and  _258
REMARK  109  A    between atoms: _258  and  _259
REMARK  110  A    between atoms: _259  and  _260
REMARK  111  A    between atoms: _269  and  _271
REMARK  112  A    between atoms: _271  and  _272
REMARK  113  A    between atoms: _271  and  _274
REMARK  114  A    between atoms: _274  and  _275
REMARK  115  A    between atoms: _277  and  _279
REMARK  116  A    between atoms: _279  and  _280
REMARK  117  A    between atoms: _279  and  _282
REMARK  118  A    between atoms: _282  and  _283
REMARK  119  A    between atoms: _286  and  _288
REMARK  120  A    between atoms: _288  and  _289
REMARK  121  A    between atoms: _288  and  _291
REMARK  122  A    between atoms: _291  and  _292
REMARK  123  A    between atoms: _297  and  _298
REMARK  124  A    between atoms: _300  and  _302
REMARK  125  A    between atoms: _302  and  _303
REMARK  126  A    between atoms: _302  and  _305
REMARK  127  A    between atoms: _305  and  _306
REMARK  128  A    between atoms: _312  and  _314
REMARK  129  A    between atoms: _314  and  _315
REMARK  130  A    between atoms: _318  and  _320
REMARK  131  A    between atoms: _320  and  _321
REMARK  132  A    between atoms: _320  and  _323
REMARK  133  A    between atoms: _323  and  _324
REMARK  134  A    between atoms: _327  and  _329
REMARK  135  A    between atoms: _329  and  _330
REMARK  136  A    between atoms: _329  and  _332
REMARK  137  A    between atoms: _332  and  _333
REMARK  138  A    between atoms: _339  and  _341
REMARK  139  A    between atoms: _341  and  _342
REMARK  140  A    between atoms: _341  and  _344
REMARK  141  A    between atoms: _344  and  _345
REMARK  142  A    between atoms: _345  and  _346
REMARK  143  A    between atoms: _348  and  _350
REMARK  144  A    between atoms: _350  and  _351
REMARK  145  A    between atoms: _350  and  _353
REMARK  146  A    between atoms: _353  and  _354
REMARK  147  A    between atoms: _356  and  _358
REMARK  148  A    between atoms: _358  and  _359
REMARK  149  A    between atoms: _362  and  _364
REMARK  150  A    between atoms: _364  and  _365
REMARK  151  A    between atoms: _364  and  _367
REMARK  152  A    between atoms: _367  and  _368
REMARK  153  A    between atoms: _368  and  _369
REMARK  154  A    between atoms: _371  and  _373
REMARK  155  A    between atoms: _373  and  _374
REMARK  156  A    between atoms: _373  and  _376
REMARK  157  A    between atoms: _376  and  _377
REMARK  158  A    between atoms: _382  and  _383
REMARK  159  A    between atoms: _385  and  _387
REMARK  160  A    between atoms: _387  and  _388
REMARK  161  A    between atoms: _387  and  _390
REMARK  162  A    between atoms: _390  and  _391
REMARK  163  A    between atoms: _391  and  _392
REMARK  164  A    between atoms: _395  and  _397
REMARK  165  A    between atoms: _397  and  _398
REMARK  166  A    between atoms: _397  and  _400
REMARK  167  A    between atoms: _400  and  _401
REMARK  168  A    between atoms: _404  and  _406
REMARK  169  A    between atoms: _406  and  _407
REMARK  170  A    between atoms: _406  and  _409
REMARK  171  A    between atoms: _411  and  _413
REMARK  172  A    between atoms: _413  and  _414
REMARK  173  A    between atoms: _413  and  _416
REMARK  174  A    between atoms: _416  and  _417
REMARK  175  A    between atoms: _417  and  _418
REMARK  176  A    between atoms: _423  and  _425
REMARK  177  A    between atoms: _425  and  _426
REMARK  178  A    between atoms: _428  and  _430
REMARK  179  A    between atoms: _430  and  _431
REMARK  180  A    between atoms: _430  and  _433
REMARK  181  A    between atoms: _433  and  _434
REMARK  182  A    between atoms: _434  and  _435
REMARK  183  A    between atoms: _437  and  _439
REMARK  184  A    between atoms: _439  and  _440
REMARK  185  A    between atoms: _439  and  _442
REMARK  186  A    between atoms: _442  and  _443
REMARK  187  A    between atoms: _448  and  _450
REMARK  188  A    between atoms: _450  and  _451
REMARK  189  A    between atoms: _450  and  _453
REMARK  190  A    between atoms: _453  and  _454
REMARK  191  A    between atoms: _454  and  _455
REMARK  192  A    between atoms: _457  and  _459
REMARK  193  A    between atoms: _459  and  _460
REMARK  194  A    between atoms: _459  and  _462
REMARK  195  A    between atoms: _462  and  _463
REMARK  196  A    between atoms: _466  and  _468
REMARK  197  A    between atoms: _468  and  _469
REMARK  198  A    between atoms: _468  and  _471
REMARK  199  A    between atoms: _474  and  _476
REMARK  200  A    between atoms: _476  and  _477
REMARK  201  A    between atoms: _476  and  _479
REMARK  202  A    between atoms: _479  and  _480
REMARK  203  A    between atoms: _483  and  _485
REMARK  204  A    between atoms: _485  and  _486
REMARK  205  A    between atoms: _485  and  _488
REMARK  206  A    between atoms: _488  and  _489
REMARK  207  A    between atoms: _492  and  _494
REMARK  208  A    between atoms: _494  and  _495
REMARK  209  A    between atoms: _494  and  _497
REMARK  210  A    between atoms: _497  and  _498
REMARK  211  A    between atoms: _501  and  _503
REMARK  212  A    between atoms: _503  and  _504
REMARK  213  A    between atoms: _503  and  _506
REMARK  214  A    between atoms: _506  and  _507
REMARK  215  A    between atoms: _507  and  _508
REMARK  216  A    between atoms: _511  and  _513
REMARK  217  A    between atoms: _513  and  _514
REMARK  218  A    between atoms: _513  and  _516
REMARK  219  A    between atoms: _516  and  _517
REMARK  220  A    between atoms: _523  and  _525
REMARK  221  A    between atoms: _525  and  _526
REMARK  222  A    between atoms: _525  and  _528
REMARK  223  A    between atoms: _530  and  _532
REMARK  224  A    between atoms: _532  and  _533
REMARK  225  A    between atoms: _532  and  _535
REMARK  226  A    between atoms: _535  and  _536
REMARK  227  A    between atoms: _542  and  _544
REMARK  228  A    between atoms: _544  and  _545
REMARK  229  A    between atoms: _544  and  _547
REMARK  230  A    between atoms: _547  and  _548
REMARK  231  A    between atoms: _553  and  _554
REMARK  232  A    between atoms: _556  and  _558
REMARK  233  A    between atoms: _558  and  _559
REMARK  234  A    between atoms: _558  and  _561
REMARK  235  A    between atoms: _561  and  _562
REMARK  236  A    between atoms: _565  and  _567
REMARK  237  A    between atoms: _567  and  _568
REMARK  238  A    between atoms: _567  and  _570
REMARK  239  A    between atoms: _570  and  _571
REMARK  240  A    between atoms: _577  and  _579
REMARK  241  A    between atoms: _579  and  _580
REMARK  242  A    between atoms: _579  and  _582
REMARK  243  A    between atoms: _582  and  _583
REMARK  244  A    between atoms: _583  and  _584
REMARK  245  A    between atoms: _584  and  _585
REMARK  246  A    between atoms: _594  and  _596
REMARK  247  A    between atoms: _596  and  _597
REMARK  248  A    between atoms: _596  and  _599
REMARK  249  A    between atoms: _599  and  _600
REMARK  250  A    between atoms: _600  and  _601
REMARK  251  A    between atoms: _604  and  _606
REMARK  252  A    between atoms: _606  and  _607
REMARK  253  A    between atoms: _606  and  _609
REMARK  254  A    between atoms: _609  and  _610
REMARK  255  A    between atoms: _612  and  _614
REMARK  256  A    between atoms: _614  and  _615
REMARK  257  A    between atoms: _614  and  _617
REMARK  258  A    between atoms: _617  and  _618
REMARK  259  A    between atoms: _621  and  _623
REMARK  260  A    between atoms: _623  and  _624
REMARK  261  A    between atoms: _623  and  _626
REMARK  262  A    between atoms: _629  and  _631
REMARK  263  A    between atoms: _631  and  _632
REMARK  264  A    between atoms: _631  and  _634
REMARK  265  A    between atoms: _634  and  _635
REMARK  266  A    between atoms: _635  and  _636
REMARK  267  A    between atoms: _639  and  _641
REMARK  268  A    between atoms: _641  and  _642
REMARK  269  A    between atoms: _641  and  _644
REMARK  270  A    between atoms: _644  and  _645
REMARK  271  A    between atoms: _651  and  _653
REMARK  272  A    between atoms: _653  and  _654
REMARK  273  A    between atoms: _653  and  _656
REMARK  274  A    between atoms: _656  and  _657
REMARK  275  A    between atoms: _660  and  _662
REMARK  276  A    between atoms: _662  and  _663
REMARK  277  A    between atoms: _662  and  _665
REMARK  278  A    between atoms: _665  and  _666
REMARK                            x       y       z     vdW  Elec       q    Type
REMARK                         _______ _______ _______ _____ _____    ______ ____
ROOT
ATOM      1  CA  PHE A   7     -10.281  54.898   6.484  0.00  0.00    +0.153 C 
ENDROOT
BRANCH   1   4
ATOM      2  C   SER A   6     -12.535  55.819   6.422  0.00  0.00    +0.243 C 
ATOM      3  O   SER A   6     -12.640  55.766   7.649  0.00  0.00    -0.273 OA
ATOM      4  N   PHE A   7     -11.447  55.409   5.772  0.00  0.00    -0.297 N 
ATOM      5  H   PHE A   7     -11.428  55.454   4.733  0.00  0.00    +0.150 HD
BRANCH   2   6
ATOM      6  CA  SER A   6     -13.679  56.363   5.564  0.00  0.00    +0.178 C 
BRANCH   6   9
ATOM      7  C   LEU A   5     -12.630  58.316   4.595  0.00  0.00    +0.241 C 
ATOM      8  O   LEU A   5     -12.456  58.799   5.713  0.00  0.00    -0.273 OA
ATOM      9  N   SER A   6     -13.201  57.127   4.414  0.00  0.00    -0.295 N 
ATOM     10  H   SER A   6     -13.307  56.742   3.454  0.00  0.00    +0.150 HD
BRANCH   7  11
ATOM     11  CA  LEU A   5     -12.171  59.077   3.353  0.00  0.00    +0.149 C 
BRANCH  11  14
ATOM     12  C   LEU A   4     -10.432  57.632   2.549  0.00  0.00    +0.241 C 
ATOM     13  O   LEU A   4      -9.847  57.746   3.613  0.00  0.00    -0.273 OA
ATOM     14  N   LEU A   5     -11.595  58.226   2.324  0.00  0.00    -0.297 N 
ATOM     15  H   LEU A   5     -12.091  58.085   1.421  0.00  0.00    +0.150 HD
BRANCH  12  16
ATOM     16  CA  LEU A   4      -9.835  56.778   1.439  0.00  0.00    +0.149 C 
BRANCH  16  19
ATOM     17  C   CYS A   3     -11.282  54.815   1.656  0.00  0.00    +0.242 C 
ATOM     18  O   CYS A   3     -11.119  54.727   2.868  0.00  0.00    -0.273 OA
ATOM     19  N   LEU A   4     -10.727  55.763   0.898  0.00  0.00    -0.297 N 
ATOM     20  H   LEU A   4     -10.940  55.777  -0.120  0.00  0.00    +0.150 HD
BRANCH  17  21
ATOM     21  CA  CYS A   3     -12.164  53.835   0.920  0.00  0.00    +0.160 C 
BRANCH  21  24
ATOM     22  C   MET A   2     -13.979  55.437   0.674  0.00  0.00    +0.241 C 
ATOM     23  O   MET A   2     -14.077  55.569   1.889  0.00  0.00    -0.273 OA
ATOM     24  N   CYS A   3     -13.101  54.612   0.109  0.00  0.00    -0.296 N 
ATOM     25  H   CYS A   3     -13.081  54.518  -0.927  0.00  0.00    +0.150 HD
BRANCH  22  26
ATOM     26  CA  MET A   2     -14.906  56.221  -0.261  0.00  0.00    +0.149 C 
BRANCH  26  29
ATOM     27  C   TRP A   1     -13.245  57.574  -1.423  0.00  0.00    +0.239 C 
ATOM     28  O   TRP A   1     -12.919  58.144  -0.378  0.00  0.00    -0.274 OA
ATOM     29  N   MET A   2     -14.201  56.649  -1.475  0.00  0.00    -0.297 N 
ATOM     30  H   MET A   2     -14.452  56.223  -2.390  0.00  0.00    +0.150 HD
BRANCH  27  31
ATOM     31  CA  TRP A   1     -12.558  57.940  -2.734  0.00  0.00    +0.149 C 
BRANCH  31  32
ATOM     32  N   TRP A   1     -12.291  56.789  -3.608  0.00  0.00    -0.238 NA
ATOM     33  H   TRP A   1     -12.656  56.796  -4.582  0.00  0.00    +0.142 HD
ENDBRANCH  31  32
BRANCH  31  34
ATOM     34  CB  TRP A   1     -13.396  59.018  -3.454  0.00  0.00    +0.054 C 
BRANCH  34  35
ATOM     35  CG  TRP A   1     -14.853  58.675  -3.594  0.00  0.00    -0.002 A 
ATOM     36  CD2 TRP A   1     -15.956  59.278  -2.902  0.00  0.00    +0.013 A 
ATOM     37  CE3 TRP A   1     -16.072  60.326  -1.976  0.00  0.00    +0.001 A 
ATOM     38  CZ3 TRP A   1     -17.341  60.651  -1.489  0.00  0.00    +0.000 A 
ATOM     39  CH2 TRP A   1     -18.483  59.946  -1.911  0.00  0.00    +0.001 A 
ATOM     40  CZ2 TRP A   1     -18.396  58.919  -2.815  0.00  0.00    +0.017 A 
ATOM     41  CE2 TRP A   1     -17.124  58.594  -3.302  0.00  0.00    +0.056 A 
ATOM     42  NE1 TRP A   1     -16.741  57.630  -4.196  0.00  0.00    -0.352 N 
ATOM     43  HE1 TRP A   1     -17.379  56.959  -4.670  0.00  0.00    +0.166 HD
ATOM     44  CD1 TRP A   1     -15.383  57.690  -4.366  0.00  0.00    +0.068 A 
ENDBRANCH  34  35
ENDBRANCH  31  34
ENDBRANCH  27  31
ENDBRANCH  26  29
BRANCH  26  45
ATOM     45  CB  MET A   2     -16.124  55.351  -0.604  0.00  0.00    +0.041 C 
BRANCH  45  46
ATOM     46  CG  MET A   2     -17.493  56.032  -0.465  0.00  0.00    +0.060 C 
BRANCH  46  47
ATOM     47  SD  MET A   2     -17.935  56.538   1.208  0.00  0.00    -0.139 S 
ATOM     48  CE  MET A   2     -17.487  58.205   1.122  0.00  0.00    +0.069 C 
ENDBRANCH  46  47
ENDBRANCH  45  46
ENDBRANCH  26  45
ENDBRANCH  22  26
ENDBRANCH  21  24
BRANCH  21  49
ATOM     49  CB  CYS A   3     -11.271  52.961   0.048  0.00  0.00    +0.098 C 
ATOM     50  SG  CYS A   3     -12.130  51.719  -0.891  0.00  0.00    -0.080 S 
ENDBRANCH  21  49
ENDBRANCH  17  21
ENDBRANCH  16  19
BRANCH  16  51
ATOM     51  CB  LEU A   4      -9.318  57.690   0.319  0.00  0.00    +0.029 C 
BRANCH  51  52
ATOM     52  CG  LEU A   4      -8.354  57.047  -0.686  0.00  0.00    +0.002 C 
ATOM     53  CD2 LEU A   4      -7.138  56.528   0.025  0.00  0.00    +0.000 C 
ATOM     54  CD1 LEU A   4      -7.954  58.047  -1.734  0.00  0.00    +0.000 C 
ENDBRANCH  51  52
ENDBRANCH  16  51
ENDBRANCH  12  16
ENDBRANCH  11  14
BRANCH  11  55
ATOM     55  CB  LEU A   5     -13.326  59.905   2.774  0.00  0.00    +0.029 C 
BRANCH  55  56
ATOM     56  CG  LEU A   5     -13.019  60.725   1.508  0.00  0.00    +0.002 C 
ATOM     57  CD2 LEU A   5     -11.888  61.725   1.785  0.00  0.00    +0.000 C 
ATOM     58  CD1 LEU A   5     -14.276  61.463   1.051  0.00  0.00    +0.000 C 
ENDBRANCH  55  56
ENDBRANCH  11  55
ENDBRANCH   7  11
ENDBRANCH   6   9
BRANCH   6  59
ATOM     59  CB  SER A   6     -14.574  55.206   5.107  0.00  0.00    +0.166 C 
BRANCH  59  60
ATOM     60  OG  SER A   6     -13.807  54.211   4.458  0.00  0.00    -0.380 OA
ATOM     61  H   SER A   6     -13.360  54.604   3.667  0.00  0.00    +0.211 HD
ENDBRANCH  59  60
ENDBRANCH   6  59
ENDBRANCH   2   6
ENDBRANCH   1   4
BRANCH   1  62
ATOM     62  C   PHE A   7      -9.694  56.078   7.253  0.00  0.00    +0.241 C 
ATOM     63  O   PHE A   7      -9.215  55.931   8.379  0.00  0.00    -0.273 OA
ATOM     64  N   ALA A   8      -9.732  57.257   6.641  0.00  0.00    -0.297 N 
ATOM     65  H   ALA A   8     -10.161  57.343   5.697  0.00  0.00    +0.150 HD
BRANCH  64  66
ATOM     66  CA  ALA A   8      -9.172  58.424   7.297  0.00  0.00    +0.149 C 
ATOM     67  CB  ALA A   8      -9.061  59.582   6.314  0.00  0.00    +0.031 C 
BRANCH  66  68
ATOM     68  C   ALA A   8     -10.040  58.795   8.505  0.00  0.00    +0.241 C 
ATOM     69  O   ALA A   8      -9.522  59.193   9.555  0.00  0.00    -0.273 OA
ATOM     70  N   LEU A   9     -11.351  58.646   8.367  0.00  0.00    -0.297 N 
ATOM     71  H   LEU A   9     -11.743  58.316   7.462  0.00  0.00    +0.150 HD
BRANCH  70  72
ATOM     72  CA  LEU A   9     -12.243  58.943   9.478  0.00  0.00    +0.149 C 
BRANCH  72  73
ATOM     73  C   LEU A   9     -11.867  58.014  10.622  0.00  0.00    +0.241 C 
ATOM     74  O   LEU A   9     -11.759  58.434  11.772  0.00  0.00    -0.273 OA
ATOM     75  N   SER A  10     -11.666  56.745  10.277  0.00  0.00    -0.295 N 
ATOM     76  H   SER A  10     -11.775  56.478   9.278  0.00  0.00    +0.150 HD
BRANCH  75  77
ATOM     77  CA  SER A  10     -11.301  55.718  11.235  0.00  0.00    +0.178 C 
BRANCH  77  78
ATOM     78  C   SER A  10     -10.019  56.111  11.969  0.00  0.00    +0.243 C 
ATOM     79  O   SER A  10      -9.919  55.918  13.178  0.00  0.00    -0.273 OA
ATOM     80  N   TRP A  11      -9.054  56.674  11.242  0.00  0.00    -0.297 N 
ATOM     81  H   TRP A  11      -9.207  56.825  10.224  0.00  0.00    +0.150 HD
BRANCH  80  82
ATOM     82  CA  TRP A  11      -7.782  57.085  11.844  0.00  0.00    +0.153 C 
BRANCH  82  83
ATOM     83  C   TRP A  11      -7.947  58.223  12.849  0.00  0.00    +0.241 C 
ATOM     84  O   TRP A  11      -7.450  58.129  13.981  0.00  0.00    -0.273 OA
ATOM     85  N   ARG A  12      -8.640  59.285  12.439  0.00  0.00    -0.297 N 
ATOM     86  H   ARG A  12      -9.021  59.300  11.471  0.00  0.00    +0.150 HD
BRANCH  85  87
ATOM     87  CA  ARG A  12      -8.877  60.427  13.315  0.00  0.00    +0.149 C 
BRANCH  87  88
ATOM     88  C   ARG A  12      -9.623  59.983  14.579  0.00  0.00    +0.241 C 
ATOM     89  O   ARG A  12      -9.248  60.364  15.694  0.00  0.00    -0.273 OA
ATOM     90  N   SER A  13     -10.668  59.176  14.403  0.00  0.00    -0.296 N 
ATOM     91  H   SER A  13     -10.926  58.893  13.436  0.00  0.00    +0.150 HD
BRANCH  90  92
ATOM     92  CA  SER A  13     -11.467  58.673  15.525  0.00  0.00    +0.166 C 
BRANCH  92  93
ATOM     93  C   SER A  13     -10.610  57.869  16.519  0.00  0.00    +0.229 C 
ATOM     94  O   SER A  13     -10.866  57.862  17.725  0.00  0.00    -0.286 OA
ENDBRANCH  92  93
BRANCH  92  95
ATOM     95  CB  SER A  13     -12.612  57.787  15.005  0.00  0.00    +0.165 C 
BRANCH  95  96
ATOM     96  OG  SER A  13     -13.632  58.537  14.361  0.00  0.00    -0.380 OA
ATOM     97  H   SER A  13     -13.246  59.021  13.589  0.00  0.00    +0.211 HD
ENDBRANCH  95  96
ENDBRANCH  92  95
ENDBRANCH  90  92
ENDBRANCH  87  88
BRANCH  87  98
ATOM     98  CB  ARG A  12      -9.686  61.526  12.590  0.00  0.00    +0.033 C 
BRANCH  98  99
ATOM     99  CG  ARG A  12      -8.926  62.312  11.515  0.00  0.00    +0.045 C 
BRANCH  99 100
ATOM    100  CD  ARG A  12      -9.733  63.538  11.066  0.00  0.00    +0.174 C 
BRANCH 100 101
ATOM    101  NE  ARG A  12     -11.000  63.144  10.462  0.00  0.00    -0.265 N 
ATOM    102  HE  ARG A  12     -11.855  63.184  11.053  0.00  0.00    +0.259 HD
ATOM    103  CZ  ARG A  12     -11.132  62.735   9.199  0.00  0.00    +0.342 C 
ATOM    104  NH2 ARG A  12     -12.307  62.326   8.756  0.00  0.00    -0.292 N 
ATOM    105 HH21 ARG A  12     -13.130  62.323   9.392  0.00  0.00    +0.255 HD
ATOM    106 HH22 ARG A  12     -12.409  62.007   7.771  0.00  0.00    +0.255 HD
ATOM    107  NH1 ARG A  12     -10.083  62.682   8.396  0.00  0.00    -0.292 N 
ATOM    108 HH11 ARG A  12      -9.145  62.961   8.747  0.00  0.00    +0.255 HD
ATOM    109 HH12 ARG A  12     -10.196  62.362   7.413  0.00  0.00    +0.255 HD
ENDBRANCH 100 101
ENDBRANCH  99 100
ENDBRANCH  98  99
ENDBRANCH  87  98
ENDBRANCH  85  87
ENDBRANCH  82  83
BRANCH  82 110
ATOM    110  CB  TRP A  11      -6.765  57.489  10.764  0.00  0.00    +0.057 C 
BRANCH 110 111
ATOM    111  CG  TRP A  11      -5.476  58.035  11.323  0.00  0.00    -0.002 A 
ATOM    112  CD2 TRP A  11      -4.439  57.287  11.972  0.00  0.00    +0.013 A 
ATOM    113  CE2 TRP A  11      -3.454  58.216  12.387  0.00  0.00    +0.056 A 
ATOM    114  CZ2 TRP A  11      -2.291  57.818  13.067  0.00  0.00    +0.017 A 
ATOM    115  CH2 TRP A  11      -2.131  56.482  13.326  0.00  0.00    +0.001 A 
ATOM    116  CZ3 TRP A  11      -3.097  55.535  12.925  0.00  0.00    +0.000 A 
ATOM    117  NE1 TRP A  11      -3.871  59.458  12.003  0.00  0.00    -0.352 N 
ATOM    118  HE1 TRP A  11      -3.355  60.346  12.166  0.00  0.00    +0.166 HD
ATOM    119  CE3 TRP A  11      -4.252  55.928  12.250  0.00  0.00    +0.001 A 
ATOM    120  CD1 TRP A  11      -5.084  59.344  11.365  0.00  0.00    +0.068 A 
ENDBRANCH 110 111
ENDBRANCH  82 110
ENDBRANCH  80  82
ENDBRANCH  77  78
BRANCH  77 121
ATOM    121  CB  SER A  10     -11.113  54.381  10.505  0.00  0.00    +0.166 C 
BRANCH 121 122
ATOM    122  OG  SER A  10     -11.019  53.300  11.414  0.00  0.00    -0.380 OA
ATOM    123  H   SER A  10     -10.899  52.456  10.910  0.00  0.00    +0.211 HD
ENDBRANCH 121 122
ENDBRANCH  77 121
ENDBRANCH  75  77
ENDBRANCH  72  73
BRANCH  72 124
ATOM    124  CB  LEU A   9     -13.705  58.699   9.082  0.00  0.00    +0.029 C 
BRANCH 124 125
ATOM    125  CG  LEU A   9     -14.676  58.371  10.224  0.00  0.00    +0.002 C 
ATOM    126  CD2 LEU A   9     -14.577  59.454  11.294  0.00  0.00    +0.000 C 
ATOM    127  CD1 LEU A   9     -16.114  58.255   9.686  0.00  0.00    +0.000 C 
ENDBRANCH 124 125
ENDBRANCH  72 124
ENDBRANCH  70  72
ENDBRANCH  66  68
ENDBRANCH  64  66
ENDBRANCH   1  62
BRANCH   1 128
ATOM    128  CB  PHE A   7      -9.239  54.376   5.488  0.00  0.00    +0.055 C 
BRANCH 128 129
ATOM    129  CG  PHE A   7      -8.158  53.516   6.101  0.00  0.00    -0.020 A 
ATOM    130  CD2 PHE A   7      -8.475  52.315   6.727  0.00  0.00    -0.004 A 
ATOM    131  CE2 PHE A   7      -7.480  51.474   7.197  0.00  0.00    -0.000 A 
ATOM    132  CZ  PHE A   7      -6.134  51.833   7.044  0.00  0.00    -0.000 A 
ATOM    133  CE1 PHE A   7      -5.804  53.033   6.427  0.00  0.00    -0.000 A 
ATOM    134  CD1 PHE A   7      -6.816  53.866   5.964  0.00  0.00    -0.004 A 
ENDBRANCH 128 129
ENDBRANCH   1 128
TORSDOF 52
REMARK  Name = ../refined-set-2016/2oax/2oax_pocket.pdb
REMARK  278 active torsions:
REMARK  status: ('A' for Active; 'I' for Inactive)
REMARK    1  A    between atoms: _1  and  _3
REMARK    2  A    between atoms: _3  and  _4
REMARK    3  A    between atoms: _7  and  _9
REMARK    4  A    between atoms: _9  and  _10
REMARK    5  A    between atoms: _9  and  _12
REMARK    6  A    between atoms: _12  and  _13
REMARK    7  A    between atoms: _13  and  _14
REMARK    8  A    between atoms: _17  and  _19
REMARK    9  A    between atoms: _19  and  _20
REMARK   10  A    between atoms: _19  and  _22
REMARK   11  A    between atoms: _22  and  _23
REMARK   12  A    between atoms: _26  and  _28
REMARK   13  A    between atoms: _28  and  _29
REMARK   14  A    between atoms: _28  and  _31
REMARK   15  A    between atoms: _31  and  _32
REMARK   16  A    between atoms: _35  and  _37
REMARK   17  A    between atoms: _37  and  _38
REMARK   18  A    between atoms: _37  and  _40
REMARK   19  A    between atoms: _40  and  _41
REMARK   20  A    between atoms: _43  and  _45
REMARK   21  A    between atoms: _45  and  _46
REMARK   22  A    between atoms: _45  and  _48
REMARK   23  A    between atoms: _48  and  _49
REMARK   24  A    between atoms: _52  and  _54
REMARK   25  A    between atoms: _54  and  _55
REMARK   26  A    between atoms: _54  and  _57
REMARK   27  A    between atoms: _57  and  _58
REMARK   28  A    between atoms: _61  and  _63
REMARK   29  A    between atoms: _63  and  _64
REMARK   30  A    between atoms: _63  and  _66
REMARK   31  A    between atoms: _66  and  _67
REMARK   32  A    between atoms: _72  and  _74
REMARK   33  A    between atoms: _74  and  _75
REMARK   34  A    between atoms: _74  and  _77
REMARK   35  A    between atoms: _77  and  _78
REMARK   36  A    between atoms: _78  and  _79
REMARK   37  A    between atoms: _79  and  _80
REMARK   38  A    between atoms: _89  and  _91
REMARK   39  A    between atoms: _91  and  _92
REMARK   40  A    between atoms: _91  and  _94
REMARK   41  A    between atoms: _94  and  _95
REMARK   42  A    between atoms: _98  and  _100
REMARK   43  A    between atoms: _100  and  _101
REMARK   44  A    between atoms: _104  and  _106
REMARK   45  A    between atoms: _106  and  _107
REMARK   46  A    between atoms: _109  and  _111
REMARK   47  A    between atoms: _111  and  _112
REMARK   48  A    between atoms: _111  and  _114
REMARK   49  A    between atoms: _114  and  _115
REMARK   50  A    between atoms: _115  and  _116
REMARK   51  A    between atoms: _116  and  _117
REMARK   52  A    between atoms: _117  and  _118
REMARK   53  A    between atoms: _122  and  _124
REMARK   54  A    between atoms: _124  and  _125
REMARK   55  A    between atoms: _124  and  _127
REMARK   56  A    between atoms: _127  and  _128
REMARK   57  A    between atoms: _128  and  _129
REMARK   58  A    between atoms: _134  and  _136
REMARK   59  A    between atoms: _136  and  _137
REMARK   60  A    between atoms: _136  and  _139
REMARK   61  A    between atoms: _139  and  _140
REMARK   62  A    between atoms: _140  and  _141
REMARK   63  A    between atoms: _143  and  _145
REMARK   64  A    between atoms: _145  and  _146
REMARK   65  A    between atoms: _145  and  _148
REMARK   66  A    between atoms: _148  and  _149
REMARK   67  A    between atoms: _159  and  _161
REMARK   68  A    between atoms: _161  and  _162
REMARK   69  A    between atoms: _161  and  _164
REMARK   70  A    between atoms: _164  and  _165
REMARK   71  A    between atoms: _165  and  _166
REMARK   72  A    between atoms: _168  and  _170
REMARK   73  A    between atoms: _170  and  _171
REMARK   74  A    between atoms: _170  and  _173
REMARK   75  A    between atoms: _175  and  _177
REMARK   76  A    between atoms: _177  and  _178
REMARK   77  A    between atoms: _177  and  _180
REMARK   78  A    between atoms: _180  and  _181
REMARK   79  A    between atoms: _184  and  _186
REMARK   80  A    between atoms: _186  and  _187
REMARK   81  A    between atoms: _186  and  _189
REMARK   82  A    between atoms: _189  and  _190
REMARK   83  A    between atoms: _193  and  _195
REMARK   84  A    between atoms: _195  and  _196
REMARK   85  A    between atoms: _195  and  _198
REMARK   86  A    between atoms: _198  and  _199
REMARK   87  A    between atoms: _201  and  _203
REMARK   88  A    between atoms: _203  and  _204
REMARK   89  A    between atoms: _203  and  _206
REMARK   90  A    between atoms: _206  and  _207
REMARK   91  A    between atoms: _213  and  _215
REMARK   92  A    between atoms: _215  and  _216
REMARK   93  A    between atoms: _219  and  _221
REMARK   94  A    between atoms: _221  and  _222
REMARK   95  A    between atoms: _221  and  _224
REMARK   96  A    between atoms: _224  and  _225
REMARK   97  A    between atoms: _228  and  _230
REMARK   98  A    between atoms: _230  and  _231
REMARK   99  A    between atoms: _230  and  _233
REMARK  100  A    between atoms: _233  and  _234
REMARK  101  A    between atoms: _236  and  _238
REMARK  102  A    between atoms: _238  and  _239
REMARK  103  A    between atoms: _238  and  _241
REMARK  104  A    between atoms: _241  and  _242
REMARK  105  A    between atoms: _252  and  _254
REMARK  106  A    between atoms: _254  and  _255
REMARK  107  A    between atoms: _254  and  _257
REMARK  108  A    between atoms: _257  and  _258
REMARK  109  A    between atoms: _258  and  _259
REMARK  110  A    between atoms: _259  and  _260
REMARK  111  A    between atoms: _269  and  _271
REMARK  112  A    between atoms: _271  and  _272
REMARK  113  A    between atoms: _271  and  _274
REMARK  114  A    between atoms: _274  and  _275
REMARK  115  A    between atoms: _277  and  _279
REMARK  116  A    between atoms: _279  and  _280
REMARK  117  A    between atoms: _279  and  _282
REMARK  118  A    between atoms: _282  and  _283
REMARK  119  A    between atoms: _286  and  _288
REMARK  120  A    between atoms: _288  and  _289
REMARK  121  A    between atoms: _288  and  _291
REMARK  122  A    between atoms: _291  and  _292
REMARK  123  A    between atoms: _297  and  _298
REMARK  124  A    between atoms: _300  and  _302
REMARK  125  A    between atoms: _302  and  _303
REMARK  126  A    between atoms: _302  and  _305
REMARK  127  A    between atoms: _305  and  _306
REMARK  128  A    between atoms: _312  and  _314
REMARK  129  A    between atoms: _314  and  _315
REMARK  130  A    between atoms: _318  and  _320
REMARK  131  A    between atoms: _320  and  _321
REMARK  132  A    between atoms: _320  and  _323
REMARK  133  A    between atoms: _323  and  _324
REMARK  134  A    between atoms: _327  and  _329
REMARK  135  A    between atoms: _329  and  _330
REMARK  136  A    between atoms: _329  and  _332
REMARK  137  A    between atoms: _332  and  _333
REMARK  138  A    between atoms: _339  and  _341
REMARK  139  A    between atoms: _341  and  _342
REMARK  140  A    between atoms: _341  and  _344
REMARK  141  A    between atoms: _344  and  _345
REMARK  142  A    between atoms: _345  and  _346
REMARK  143  A    between atoms: _348  and  _350
REMARK  144  A    between atoms: _350  and  _351
REMARK  145  A    between atoms: _350  and  _353
REMARK  146  A    between atoms: _353  and  _354
REMARK  147  A    between atoms: _356  and  _358
REMARK  148  A    between atoms: _358  and  _359
REMARK  149  A    between atoms: _362  and  _364
REMARK  150  A    between atoms: _364  and  _365
REMARK  151  A    between atoms: _364  and  _367
REMARK  152  A    between atoms: _367  and  _368
REMARK  153  A    between atoms: _368  and  _369
REMARK  154  A    between atoms: _371  and  _373
REMARK  155  A    between atoms: _373  and  _374
REMARK  156  A    between atoms: _373  and  _376
REMARK  157  A    between atoms: _376  and  _377
REMARK  158  A    between atoms: _382  and  _383
REMARK  159  A    between atoms: _385  and  _387
REMARK  160  A    between atoms: _387  and  _388
REMARK  161  A    between atoms: _387  and  _390
REMARK  162  A    between atoms: _390  and  _391
REMARK  163  A    between atoms: _391  and  _392
REMARK  164  A    between atoms: _395  and  _397
REMARK  165  A    between atoms: _397  and  _398
REMARK  166  A    between atoms: _397  and  _400
REMARK  167  A    between atoms: _400  and  _401
REMARK  168  A    between atoms: _404  and  _406
REMARK  169  A    between atoms: _406  and  _407
REMARK  170  A    between atoms: _406  and  _409
REMARK  171  A    between atoms: _411  and  _413
REMARK  172  A    between atoms: _413  and  _414
REMARK  173  A    between atoms: _413  and  _416
REMARK  174  A    between atoms: _416  and  _417
REMARK  175  A    between atoms: _417  and  _418
REMARK  176  A    between atoms: _423  and  _425
REMARK  177  A    between atoms: _425  and  _426
REMARK  178  A    between atoms: _428  and  _430
REMARK  179  A    between atoms: _430  and  _431
REMARK  180  A    between atoms: _430  and  _433
REMARK  181  A    between atoms: _433  and  _434
REMARK  182  A    between atoms: _434  and  _435
REMARK  183  A    between atoms: _437  and  _439
REMARK  184  A    between atoms: _439  and  _440
REMARK  185  A    between atoms: _439  and  _442
REMARK  186  A    between atoms: _442  and  _443
REMARK  187  A    between atoms: _448  and  _450
REMARK  188  A    between atoms: _450  and  _451
REMARK  189  A    between atoms: _450  and  _453
REMARK  190  A    between atoms: _453  and  _454
REMARK  191  A    between atoms: _454  and  _455
REMARK  192  A    between atoms: _457  and  _459
REMARK  193  A    between atoms: _459  and  _460
REMARK  194  A    between atoms: _459  and  _462
REMARK  195  A    between atoms: _462  and  _463
REMARK  196  A    between atoms: _466  and  _468
REMARK  197  A    between atoms: _468  and  _469
REMARK  198  A    between atoms: _468  and  _471
REMARK  199  A    between atoms: _474  and  _476
REMARK  200  A    between atoms: _476  and  _477
REMARK  201  A    between atoms: _476  and  _479
REMARK  202  A    between atoms: _479  and  _480
REMARK  203  A    between atoms: _483  and  _485
REMARK  204  A    between atoms: _485  and  _486
REMARK  205  A    between atoms: _485  and  _488
REMARK  206  A    between atoms: _488  and  _489
REMARK  207  A    between atoms: _492  and  _494
REMARK  208  A    between atoms: _494  and  _495
REMARK  209  A    between atoms: _494  and  _497
REMARK  210  A    between atoms: _497  and  _498
REMARK  211  A    between atoms: _501  and  _503
REMARK  212  A    between atoms: _503  and  _504
REMARK  213  A    between atoms: _503  and  _506
REMARK  214  A    between atoms: _506  and  _507
REMARK  215  A    between atoms: _507  and  _508
REMARK  216  A    between atoms: _511  and  _513
REMARK  217  A    between atoms: _513  and  _514
REMARK  218  A    between atoms: _513  and  _516
REMARK  219  A    between atoms: _516  and  _517
REMARK  220  A    between atoms: _523  and  _525
REMARK  221  A    between atoms: _525  and  _526
REMARK  222  A    between atoms: _525  and  _528
REMARK  223  A    between atoms: _530  and  _532
REMARK  224  A    between atoms: _532  and  _533
REMARK  225  A    between atoms: _532  and  _535
REMARK  226  A    between atoms: _535  and  _536
REMARK  227  A    between atoms: _542  and  _544
REMARK  228  A    between atoms: _544  and  _545
REMARK  229  A    between atoms: _544  and  _547
REMARK  230  A    between atoms: _547  and  _548
REMARK  231  A    between atoms: _553  and  _554
REMARK  232  A    between atoms: _556  and  _558
REMARK  233  A    between atoms: _558  and  _559
REMARK  234  A    between atoms: _558  and  _561
REMARK  235  A    between atoms: _561  and  _562
REMARK  236  A    between atoms: _565  and  _567
REMARK  237  A    between atoms: _567  and  _568
REMARK  238  A    between atoms: _567  and  _570
REMARK  239  A    between atoms: _570  and  _571
REMARK  240  A    between atoms: _577  and  _579
REMARK  241  A    between atoms: _579  and  _580
REMARK  242  A    between atoms: _579  and  _582
REMARK  243  A    between atoms: _582  and  _583
REMARK  244  A    between atoms: _583  and  _584
REMARK  245  A    between atoms: _584  and  _585
REMARK  246  A    between atoms: _594  and  _596
REMARK  247  A    between atoms: _596  and  _597
REMARK  248  A    between atoms: _596  and  _599
REMARK  249  A    between atoms: _599  and  _600
REMARK  250  A    between atoms: _600  and  _601
REMARK  251  A    between atoms: _604  and  _606
REMARK  252  A    between atoms: _606  and  _607
REMARK  253  A    between atoms: _606  and  _609
REMARK  254  A    between atoms: _609  and  _610
REMARK  255  A    between atoms: _612  and  _614
REMARK  256  A    between atoms: _614  and  _615
REMARK  257  A    between atoms: _614  and  _617
REMARK  258  A    between atoms: _617  and  _618
REMARK  259  A    between atoms: _621  and  _623
REMARK  260  A    between atoms: _623  and  _624
REMARK  261  A    between atoms: _623  and  _626
REMARK  262  A    between atoms: _629  and  _631
REMARK  263  A    between atoms: _631  and  _632
REMARK  264  A    between atoms: _631  and  _634
REMARK  265  A    between atoms: _634  and  _635
REMARK  266  A    between atoms: _635  and  _636
REMARK  267  A    between atoms: _639  and  _641
REMARK  268  A    between atoms: _641  and  _642
REMARK  269  A    between atoms: _641  and  _644
REMARK  270  A    between atoms: _644  and  _645
REMARK  271  A    between atoms: _651  and  _653
REMARK  272  A    between atoms: _653  and  _654
REMARK  273  A    between atoms: _653  and  _656
REMARK  274  A    between atoms: _656  and  _657
REMARK  275  A    between atoms: _660  and  _662
REMARK  276  A    between atoms: _662  and  _663
REMARK  277  A    between atoms: _662  and  _665
REMARK  278  A    between atoms: _665  and  _666
REMARK                            x       y       z     vdW  Elec       q    Type
REMARK                         _______ _______ _______ _____ _____    ______ ____
ROOT
ATOM      1  CA  TYR A   2     -14.179  62.105  14.610  0.00  0.00    +0.153 C 
ENDROOT
BRANCH   1   4
ATOM      2  C   LEU A   1     -16.116  60.623  14.934  0.00  0.00    +0.238 C 
ATOM      3  O   LEU A   1     -16.952  61.535  14.856  0.00  0.00    -0.274 OA
ATOM      4  N   TYR A   2     -14.807  60.804  14.799  0.00  0.00    -0.297 N 
ATOM      5  H   TYR A   2     -14.193  59.965  14.830  0.00  0.00    +0.150 HD
BRANCH   2   6
ATOM      6  CA  LEU A   1     -16.532  59.177  15.186  0.00  0.00    +0.145 C 
BRANCH   6   7
ATOM      7  N   LEU A   1     -16.923  59.034  16.586  0.00  0.00    -0.238 NA
ATOM      8  H   LEU A   1     -17.832  59.428  16.902  0.00  0.00    +0.142 HD
ENDBRANCH   6   7
BRANCH   6   9
ATOM      9  CB  LEU A   1     -17.677  58.780  14.255  0.00  0.00    +0.026 C 
BRANCH   9  10
ATOM     10  CG  LEU A   1     -17.918  57.278  14.107  0.00  0.00    +0.002 C 
ATOM     11  CD2 LEU A   1     -16.624  56.589  13.720  0.00  0.00    +0.000 C 
ATOM     12  CD1 LEU A   1     -18.979  57.038  13.048  0.00  0.00    +0.000 C 
ENDBRANCH   9  10
ENDBRANCH   6   9
ENDBRANCH   2   6
ENDBRANCH   1   4
BRANCH   1  13
ATOM     13  C   TYR A   2     -14.090  62.537  13.141  0.00  0.00    +0.241 C 
ATOM     14  N   PHE A   3     -15.185  63.081  12.615  0.00  0.00    -0.297 N 
ATOM     15  H   PHE A   3     -16.033  63.181  13.208  0.00  0.00    +0.150 HD
ATOM     16  O   TYR A   2     -13.052  62.387  12.506  0.00  0.00    -0.273 OA
BRANCH  14  17
ATOM     17  CA  PHE A   3     -15.231  63.543  11.228  0.00  0.00    +0.153 C 
BRANCH  17  18
ATOM     18  C   PHE A   3     -14.375  64.782  11.055  0.00  0.00    +0.241 C 
ATOM     19  N   ALA A   4     -14.422  65.644  12.064  0.00  0.00    -0.298 N 
ATOM     20  H   ALA A   4     -15.018  65.423  12.887  0.00  0.00    +0.150 HD
ATOM     21  O   PHE A   3     -13.708  64.963  10.032  0.00  0.00    -0.273 OA
BRANCH  19  22
ATOM     22  CA  ALA A   4     -13.669  66.885  12.056  0.00  0.00    +0.137 C 
ATOM     23  CB  ALA A   4     -14.315  67.870  11.076  0.00  0.00    +0.030 C 
BRANCH  22  24
ATOM     24  C   ALA A   4     -13.645  67.475  13.467  0.00  0.00    +0.227 C 
ATOM     25  O   ALA A   4     -14.498  67.150  14.294  0.00  0.00    -0.286 OA
ENDBRANCH  22  24
ENDBRANCH  19  22
ENDBRANCH  17  18
BRANCH  17  26
ATOM     26  CB  PHE A   3     -16.663  63.894  10.815  0.00  0.00    +0.055 C 
BRANCH  26  27
ATOM     27  CG  PHE A   3     -17.567  62.707  10.663  0.00  0.00    -0.020 A 
ATOM     28  CD2 PHE A   3     -18.504  62.406  11.640  0.00  0.00    -0.004 A 
ATOM     29  CE2 PHE A   3     -19.360  61.333  11.483  0.00  0.00    -0.000 A 
ATOM     30  CZ  PHE A   3     -19.286  60.545  10.340  0.00  0.00    -0.000 A 
ATOM     31  CE1 PHE A   3     -18.355  60.831   9.361  0.00  0.00    -0.000 A 
ATOM     32  CD1 PHE A   3     -17.501  61.908   9.524  0.00  0.00    -0.004 A 
ENDBRANCH  26  27
ENDBRANCH  17  26
ENDBRANCH  14  17
ENDBRANCH   1  13
BRANCH   1  33
ATOM     33  CB  TYR A   2     -12.784  62.049  15.260  0.00  0.00    +0.055 C 
BRANCH  33  34
ATOM     34  CG  TYR A   2     -12.140  63.379  15.588  0.00  0.00    -0.020 A 
ATOM     35  CD2 TYR A   2     -12.295  63.954  16.854  0.00  0.00    -0.001 A 
ATOM     36  CE2 TYR A   2     -11.719  65.184  17.163  0.00  0.00    +0.036 A 
ATOM     37  CZ  TYR A   2     -10.972  65.853  16.197  0.00  0.00    +0.134 A 
ATOM     38  CE1 TYR A   2     -10.797  65.299  14.933  0.00  0.00    +0.036 A 
ATOM     39  CD1 TYR A   2     -11.384  64.068  14.636  0.00  0.00    -0.001 A 
BRANCH  37  40
ATOM     40  OH  TYR A   2     -10.422  67.084  16.482  0.00  0.00    -0.506 OA
ATOM     41  HH  TYR A   2      -9.801  66.997  17.248  0.00  0.00    +0.292 HD
ENDBRANCH  37  40
ENDBRANCH  33  34
ENDBRANCH   1  33
TORSDOF 15
REMARK  Name = ../refined-set-2016/2oax/2oax_pocket.pdb
REMARK  278 active torsions:
REMARK  status: ('A' for Active; 'I' for Inactive)
REMARK    1  A    between atoms: _1  and  _3
REMARK    2  A    between atoms: _3  and  _4
REMARK    3  A    between atoms: _7  and  _9
REMARK    4  A    between atoms: _9  and  _10
REMARK    5  A    between atoms: _9  and  _12
REMARK    6  A    between atoms: _12  and  _13
REMARK    7  A    between atoms: _13  and  _14
REMARK    8  A    between atoms: _17  and  _19
REMARK    9  A    between atoms: _19  and  _20
REMARK   10  A    between atoms: _19  and  _22
REMARK   11  A    between atoms: _22  and  _23
REMARK   12  A    between atoms: _26  and  _28
REMARK   13  A    between atoms: _28  and  _29
REMARK   14  A    between atoms: _28  and  _31
REMARK   15  A    between atoms: _31  and  _32
REMARK   16  A    between atoms: _35  and  _37
REMARK   17  A    between atoms: _37  and  _38
REMARK   18  A    between atoms: _37  and  _40
REMARK   19  A    between atoms: _40  and  _41
REMARK   20  A    between atoms: _43  and  _45
REMARK   21  A    between atoms: _45  and  _46
REMARK   22  A    between atoms: _45  and  _48
REMARK   23  A    between atoms: _48  and  _49
REMARK   24  A    between atoms: _52  and  _54
REMARK   25  A    between atoms: _54  and  _55
REMARK   26  A    between atoms: _54  and  _57
REMARK   27  A    between atoms: _57  and  _58
REMARK   28  A    between atoms: _61  and  _63
REMARK   29  A    between atoms: _63  and  _64
REMARK   30  A    between atoms: _63  and  _66
REMARK   31  A    between atoms: _66  and  _67
REMARK   32  A    between atoms: _72  and  _74
REMARK   33  A    between atoms: _74  and  _75
REMARK   34  A    between atoms: _74  and  _77
REMARK   35  A    between atoms: _77  and  _78
REMARK   36  A    between atoms: _78  and  _79
REMARK   37  A    between atoms: _79  and  _80
REMARK   38  A    between atoms: _89  and  _91
REMARK   39  A    between atoms: _91  and  _92
REMARK   40  A    between atoms: _91  and  _94
REMARK   41  A    between atoms: _94  and  _95
REMARK   42  A    between atoms: _98  and  _100
REMARK   43  A    between atoms: _100  and  _101
REMARK   44  A    between atoms: _104  and  _106
REMARK   45  A    between atoms: _106  and  _107
REMARK   46  A    between atoms: _109  and  _111
REMARK   47  A    between atoms: _111  and  _112
REMARK   48  A    between atoms: _111  and  _114
REMARK   49  A    between atoms: _114  and  _115
REMARK   50  A    between atoms: _115  and  _116
REMARK   51  A    between atoms: _116  and  _117
REMARK   52  A    between atoms: _117  and  _118
REMARK   53  A    between atoms: _122  and  _124
REMARK   54  A    between atoms: _124  and  _125
REMARK   55  A    between atoms: _124  and  _127
REMARK   56  A    between atoms: _127  and  _128
REMARK   57  A    between atoms: _128  and  _129
REMARK   58  A    between atoms: _134  and  _136
REMARK   59  A    between atoms: _136  and  _137
REMARK   60  A    between atoms: _136  and  _139
REMARK   61  A    between atoms: _139  and  _140
REMARK   62  A    between atoms: _140  and  _141
REMARK   63  A    between atoms: _143  and  _145
REMARK   64  A    between atoms: _145  and  _146
REMARK   65  A    between atoms: _145  and  _148
REMARK   66  A    between atoms: _148  and  _149
REMARK   67  A    between atoms: _159  and  _161
REMARK   68  A    between atoms: _161  and  _162
REMARK   69  A    between atoms: _161  and  _164
REMARK   70  A    between atoms: _164  and  _165
REMARK   71  A    between atoms: _165  and  _166
REMARK   72  A    between atoms: _168  and  _170
REMARK   73  A    between atoms: _170  and  _171
REMARK   74  A    between atoms: _170  and  _173
REMARK   75  A    between atoms: _175  and  _177
REMARK   76  A    between atoms: _177  and  _178
REMARK   77  A    between atoms: _177  and  _180
REMARK   78  A    between atoms: _180  and  _181
REMARK   79  A    between atoms: _184  and  _186
REMARK   80  A    between atoms: _186  and  _187
REMARK   81  A    between atoms: _186  and  _189
REMARK   82  A    between atoms: _189  and  _190
REMARK   83  A    between atoms: _193  and  _195
REMARK   84  A    between atoms: _195  and  _196
REMARK   85  A    between atoms: _195  and  _198
REMARK   86  A    between atoms: _198  and  _199
REMARK   87  A    between atoms: _201  and  _203
REMARK   88  A    between atoms: _203  and  _204
REMARK   89  A    between atoms: _203  and  _206
REMARK   90  A    between atoms: _206  and  _207
REMARK   91  A    between atoms: _213  and  _215
REMARK   92  A    between atoms: _215  and  _216
REMARK   93  A    between atoms: _219  and  _221
REMARK   94  A    between atoms: _221  and  _222
REMARK   95  A    between atoms: _221  and  _224
REMARK   96  A    between atoms: _224  and  _225
REMARK   97  A    between atoms: _228  and  _230
REMARK   98  A    between atoms: _230  and  _231
REMARK   99  A    between atoms: _230  and  _233
REMARK  100  A    between atoms: _233  and  _234
REMARK  101  A    between atoms: _236  and  _238
REMARK  102  A    between atoms: _238  and  _239
REMARK  103  A    between atoms: _238  and  _241
REMARK  104  A    between atoms: _241  and  _242
REMARK  105  A    between atoms: _252  and  _254
REMARK  106  A    between atoms: _254  and  _255
REMARK  107  A    between atoms: _254  and  _257
REMARK  108  A    between atoms: _257  and  _258
REMARK  109  A    between atoms: _258  and  _259
REMARK  110  A    between atoms: _259  and  _260
REMARK  111  A    between atoms: _269  and  _271
REMARK  112  A    between atoms: _271  and  _272
REMARK  113  A    between atoms: _271  and  _274
REMARK  114  A    between atoms: _274  and  _275
REMARK  115  A    between atoms: _277  and  _279
REMARK  116  A    between atoms: _279  and  _280
REMARK  117  A    between atoms: _279  and  _282
REMARK  118  A    between atoms: _282  and  _283
REMARK  119  A    between atoms: _286  and  _288
REMARK  120  A    between atoms: _288  and  _289
REMARK  121  A    between atoms: _288  and  _291
REMARK  122  A    between atoms: _291  and  _292
REMARK  123  A    between atoms: _297  and  _298
REMARK  124  A    between atoms: _300  and  _302
REMARK  125  A    between atoms: _302  and  _303
REMARK  126  A    between atoms: _302  and  _305
REMARK  127  A    between atoms: _305  and  _306
REMARK  128  A    between atoms: _312  and  _314
REMARK  129  A    between atoms: _314  and  _315
REMARK  130  A    between atoms: _318  and  _320
REMARK  131  A    between atoms: _320  and  _321
REMARK  132  A    between atoms: _320  and  _323
REMARK  133  A    between atoms: _323  and  _324
REMARK  134  A    between atoms: _327  and  _329
REMARK  135  A    between atoms: _329  and  _330
REMARK  136  A    between atoms: _329  and  _332
REMARK  137  A    between atoms: _332  and  _333
REMARK  138  A    between atoms: _339  and  _341
REMARK  139  A    between atoms: _341  and  _342
REMARK  140  A    between atoms: _341  and  _344
REMARK  141  A    between atoms: _344  and  _345
REMARK  142  A    between atoms: _345  and  _346
REMARK  143  A    between atoms: _348  and  _350
REMARK  144  A    between atoms: _350  and  _351
REMARK  145  A    between atoms: _350  and  _353
REMARK  146  A    between atoms: _353  and  _354
REMARK  147  A    between atoms: _356  and  _358
REMARK  148  A    between atoms: _358  and  _359
REMARK  149  A    between atoms: _362  and  _364
REMARK  150  A    between atoms: _364  and  _365
REMARK  151  A    between atoms: _364  and  _367
REMARK  152  A    between atoms: _367  and  _368
REMARK  153  A    between atoms: _368  and  _369
REMARK  154  A    between atoms: _371  and  _373
REMARK  155  A    between atoms: _373  and  _374
REMARK  156  A    between atoms: _373  and  _376
REMARK  157  A    between atoms: _376  and  _377
REMARK  158  A    between atoms: _382  and  _383
REMARK  159  A    between atoms: _385  and  _387
REMARK  160  A    between atoms: _387  and  _388
REMARK  161  A    between atoms: _387  and  _390
REMARK  162  A    between atoms: _390  and  _391
REMARK  163  A    between atoms: _391  and  _392
REMARK  164  A    between atoms: _395  and  _397
REMARK  165  A    between atoms: _397  and  _398
REMARK  166  A    between atoms: _397  and  _400
REMARK  167  A    between atoms: _400  and  _401
REMARK  168  A    between atoms: _404  and  _406
REMARK  169  A    between atoms: _406  and  _407
REMARK  170  A    between atoms: _406  and  _409
REMARK  171  A    between atoms: _411  and  _413
REMARK  172  A    between atoms: _413  and  _414
REMARK  173  A    between atoms: _413  and  _416
REMARK  174  A    between atoms: _416  and  _417
REMARK  175  A    between atoms: _417  and  _418
REMARK  176  A    between atoms: _423  and  _425
REMARK  177  A    between atoms: _425  and  _426
REMARK  178  A    between atoms: _428  and  _430
REMARK  179  A    between atoms: _430  and  _431
REMARK  180  A    between atoms: _430  and  _433
REMARK  181  A    between atoms: _433  and  _434
REMARK  182  A    between atoms: _434  and  _435
REMARK  183  A    between atoms: _437  and  _439
REMARK  184  A    between atoms: _439  and  _440
REMARK  185  A    between atoms: _439  and  _442
REMARK  186  A    between atoms: _442  and  _443
REMARK  187  A    between atoms: _448  and  _450
REMARK  188  A    between atoms: _450  and  _451
REMARK  189  A    between atoms: _450  and  _453
REMARK  190  A    between atoms: _453  and  _454
REMARK  191  A    between atoms: _454  and  _455
REMARK  192  A    between atoms: _457  and  _459
REMARK  193  A    between atoms: _459  and  _460
REMARK  194  A    between atoms: _459  and  _462
REMARK  195  A    between atoms: _462  and  _463
REMARK  196  A    between atoms: _466  and  _468
REMARK  197  A    between atoms: _468  and  _469
REMARK  198  A    between atoms: _468  and  _471
REMARK  199  A    between atoms: _474  and  _476
REMARK  200  A    between atoms: _476  and  _477
REMARK  201  A    between atoms: _476  and  _479
REMARK  202  A    between atoms: _479  and  _480
REMARK  203  A    between atoms: _483  and  _485
REMARK  204  A    between atoms: _485  and  _486
REMARK  205  A    between atoms: _485  and  _488
REMARK  206  A    between atoms: _488  and  _489
REMARK  207  A    between atoms: _492  and  _494
REMARK  208  A    between atoms: _494  and  _495
REMARK  209  A    between atoms: _494  and  _497
REMARK  210  A    between atoms: _497  and  _498
REMARK  211  A    between atoms: _501  and  _503
REMARK  212  A    between atoms: _503  and  _504
REMARK  213  A    between atoms: _503  and  _506
REMARK  214  A    between atoms: _506  and  _507
REMARK  215  A    between atoms: _507  and  _508
REMARK  216  A    between atoms: _511  and  _513
REMARK  217  A    between atoms: _513  and  _514
REMARK  218  A    between atoms: _513  and  _516
REMARK  219  A    between atoms: _516  and  _517
REMARK  220  A    between atoms: _523  and  _525
REMARK  221  A    between atoms: _525  and  _526
REMARK  222  A    between atoms: _525  and  _528
REMARK  223  A    between atoms: _530  and  _532
REMARK  224  A    between atoms: _532  and  _533
REMARK  225  A    between atoms: _532  and  _535
REMARK  226  A    between atoms: _535  and  _536
REMARK  227  A    between atoms: _542  and  _544
REMARK  228  A    between atoms: _544  and  _545
REMARK  229  A    between atoms: _544  and  _547
REMARK  230  A    between atoms: _547  and  _548
REMARK  231  A    between atoms: _553  and  _554
REMARK  232  A    between atoms: _556  and  _558
REMARK  233  A    between atoms: _558  and  _559
REMARK  234  A    between atoms: _558  and  _561
REMARK  235  A    between atoms: _561  and  _562
REMARK  236  A    between atoms: _565  and  _567
REMARK  237  A    between atoms: _567  and  _568
REMARK  238  A    between atoms: _567  and  _570
REMARK  239  A    between atoms: _570  and  _571
REMARK  240  A    between atoms: _577  and  _579
REMARK  241  A    between atoms: _579  and  _580
REMARK  242  A    between atoms: _579  and  _582
REMARK  243  A    between atoms: _582  and  _583
REMARK  244  A    between atoms: _583  and  _584
REMARK  245  A    between atoms: _584  and  _585
REMARK  246  A    between atoms: _594  and  _596
REMARK  247  A    between atoms: _596  and  _597
REMARK  248  A    between atoms: _596  and  _599
REMARK  249  A    between atoms: _599  and  _600
REMARK  250  A    between atoms: _600  and  _601
REMARK  251  A    between atoms: _604  and  _606
REMARK  252  A    between atoms: _606  and  _607
REMARK  253  A    between atoms: _606  and  _609
REMARK  254  A    between atoms: _609  and  _610
REMARK  255  A    between atoms: _612  and  _614
REMARK  256  A    between atoms: _614  and  _615
REMARK  257  A    between atoms: _614  and  _617
REMARK  258  A    between atoms: _617  and  _618
REMARK  259  A    between atoms: _621  and  _623
REMARK  260  A    between atoms: _623  and  _624
REMARK  261  A    between atoms: _623  and  _626
REMARK  262  A    between atoms: _629  and  _631
REMARK  263  A    between atoms: _631  and  _632
REMARK  264  A    between atoms: _631  and  _634
REMARK  265  A    between atoms: _634  and  _635
REMARK  266  A    between atoms: _635  and  _636
REMARK  267  A    between atoms: _639  and  _641
REMARK  268  A    between atoms: _641  and  _642
REMARK  269  A    between atoms: _641  and  _644
REMARK  270  A    between atoms: _644  and  _645
REMARK  271  A    between atoms: _651  and  _653
REMARK  272  A    between atoms: _653  and  _654
REMARK  273  A    between atoms: _653  and  _656
REMARK  274  A    between atoms: _656  and  _657
REMARK  275  A    between atoms: _660  and  _662
REMARK  276  A    between atoms: _662  and  _663
REMARK  277  A    between atoms: _662  and  _665
REMARK  278  A    between atoms: _665  and  _666
REMARK                            x       y       z     vdW  Elec       q    Type
REMARK                         _______ _______ _______ _____ _____    ______ ____
ROOT
ATOM      1  CA  LEU A   1     -17.894  67.568  14.081  0.00  0.00    +0.133 C 
ENDROOT
BRANCH   1   2
ATOM      2  N   LEU A   1     -16.833  68.532  14.377  0.00  0.00    -0.239 NA
ATOM      3  H   LEU A   1     -15.844  68.212  14.401  0.00  0.00    +0.142 HD
ENDBRANCH   1   2
BRANCH   1   4
ATOM      4  C   LEU A   1     -17.525  66.161  14.549  0.00  0.00    +0.224 C 
ATOM      5  O   LEU A   1     -17.020  65.346  13.770  0.00  0.00    -0.287 OA
ENDBRANCH   1   4
BRANCH   1   6
ATOM      6  CB  LEU A   1     -18.205  67.543  12.579  0.00  0.00    +0.025 C 
BRANCH   6   7
ATOM      7  CG  LEU A   1     -19.408  66.691  12.164  0.00  0.00    +0.002 C 
ATOM      8  CD2 LEU A   1     -20.646  67.175  12.897  0.00  0.00    +0.000 C 
ATOM      9  CD1 LEU A   1     -19.607  66.776  10.657  0.00  0.00    +0.000 C 
ENDBRANCH   6   7
ENDBRANCH   1   6
TORSDOF 4
REMARK  Name = ../refined-set-2016/2oax/2oax_pocket.pdb
REMARK  278 active torsions:
REMARK  status: ('A' for Active; 'I' for Inactive)
REMARK    1  A    between atoms: _1  and  _3
REMARK    2  A    between atoms: _3  and  _4
REMARK    3  A    between atoms: _7  and  _9
REMARK    4  A    between atoms: _9  and  _10
REMARK    5  A    between atoms: _9  and  _12
REMARK    6  A    between atoms: _12  and  _13
REMARK    7  A    between atoms: _13  and  _14
REMARK    8  A    between atoms: _17  and  _19
REMARK    9  A    between atoms: _19  and  _20
REMARK   10  A    between atoms: _19  and  _22
REMARK   11  A    between atoms: _22  and  _23
REMARK   12  A    between atoms: _26  and  _28
REMARK   13  A    between atoms: _28  and  _29
REMARK   14  A    between atoms: _28  and  _31
REMARK   15  A    between atoms: _31  and  _32
REMARK   16  A    between atoms: _35  and  _37
REMARK   17  A    between atoms: _37  and  _38
REMARK   18  A    between atoms: _37  and  _40
REMARK   19  A    between atoms: _40  and  _41
REMARK   20  A    between atoms: _43  and  _45
REMARK   21  A    between atoms: _45  and  _46
REMARK   22  A    between atoms: _45  and  _48
REMARK   23  A    between atoms: _48  and  _49
REMARK   24  A    between atoms: _52  and  _54
REMARK   25  A    between atoms: _54  and  _55
REMARK   26  A    between atoms: _54  and  _57
REMARK   27  A    between atoms: _57  and  _58
REMARK   28  A    between atoms: _61  and  _63
REMARK   29  A    between atoms: _63  and  _64
REMARK   30  A    between atoms: _63  and  _66
REMARK   31  A    between atoms: _66  and  _67
REMARK   32  A    between atoms: _72  and  _74
REMARK   33  A    between atoms: _74  and  _75
REMARK   34  A    between atoms: _74  and  _77
REMARK   35  A    between atoms: _77  and  _78
REMARK   36  A    between atoms: _78  and  _79
REMARK   37  A    between atoms: _79  and  _80
REMARK   38  A    between atoms: _89  and  _91
REMARK   39  A    between atoms: _91  and  _92
REMARK   40  A    between atoms: _91  and  _94
REMARK   41  A    between atoms: _94  and  _95
REMARK   42  A    between atoms: _98  and  _100
REMARK   43  A    between atoms: _100  and  _101
REMARK   44  A    between atoms: _104  and  _106
REMARK   45  A    between atoms: _106  and  _107
REMARK   46  A    between atoms: _109  and  _111
REMARK   47  A    between atoms: _111  and  _112
REMARK   48  A    between atoms: _111  and  _114
REMARK   49  A    between atoms: _114  and  _115
REMARK   50  A    between atoms: _115  and  _116
REMARK   51  A    between atoms: _116  and  _117
REMARK   52  A    between atoms: _117  and  _118
REMARK   53  A    between atoms: _122  and  _124
REMARK   54  A    between atoms: _124  and  _125
REMARK   55  A    between atoms: _124  and  _127
REMARK   56  A    between atoms: _127  and  _128
REMARK   57  A    between atoms: _128  and  _129
REMARK   58  A    between atoms: _134  and  _136
REMARK   59  A    between atoms: _136  and  _137
REMARK   60  A    between atoms: _136  and  _139
REMARK   61  A    between atoms: _139  and  _140
REMARK   62  A    between atoms: _140  and  _141
REMARK   63  A    between atoms: _143  and  _145
REMARK   64  A    between atoms: _145  and  _146
REMARK   65  A    between atoms: _145  and  _148
REMARK   66  A    between atoms: _148  and  _149
REMARK   67  A    between atoms: _159  and  _161
REMARK   68  A    between atoms: _161  and  _162
REMARK   69  A    between atoms: _161  and  _164
REMARK   70  A    between atoms: _164  and  _165
REMARK   71  A    between atoms: _165  and  _166
REMARK   72  A    between atoms: _168  and  _170
REMARK   73  A    between atoms: _170  and  _171
REMARK   74  A    between atoms: _170  and  _173
REMARK   75  A    between atoms: _175  and  _177
REMARK   76  A    between atoms: _177  and  _178
REMARK   77  A    between atoms: _177  and  _180
REMARK   78  A    between atoms: _180  and  _181
REMARK   79  A    between atoms: _184  and  _186
REMARK   80  A    between atoms: _186  and  _187
REMARK   81  A    between atoms: _186  and  _189
REMARK   82  A    between atoms: _189  and  _190
REMARK   83  A    between atoms: _193  and  _195
REMARK   84  A    between atoms: _195  and  _196
REMARK   85  A    between atoms: _195  and  _198
REMARK   86  A    between atoms: _198  and  _199
REMARK   87  A    between atoms: _201  and  _203
REMARK   88  A    between atoms: _203  and  _204
REMARK   89  A    between atoms: _203  and  _206
REMARK   90  A    between atoms: _206  and  _207
REMARK   91  A    between atoms: _213  and  _215
REMARK   92  A    between atoms: _215  and  _216
REMARK   93  A    between atoms: _219  and  _221
REMARK   94  A    between atoms: _221  and  _222
REMARK   95  A    between atoms: _221  and  _224
REMARK   96  A    between atoms: _224  and  _225
REMARK   97  A    between atoms: _228  and  _230
REMARK   98  A    between atoms: _230  and  _231
REMARK   99  A    between atoms: _230  and  _233
REMARK  100  A    between atoms: _233  and  _234
REMARK  101  A    between atoms: _236  and  _238
REMARK  102  A    between atoms: _238  and  _239
REMARK  103  A    between atoms: _238  and  _241
REMARK  104  A    between atoms: _241  and  _242
REMARK  105  A    between atoms: _252  and  _254
REMARK  106  A    between atoms: _254  and  _255
REMARK  107  A    between atoms: _254  and  _257
REMARK  108  A    between atoms: _257  and  _258
REMARK  109  A    between atoms: _258  and  _259
REMARK  110  A    between atoms: _259  and  _260
REMARK  111  A    between atoms: _269  and  _271
REMARK  112  A    between atoms: _271  and  _272
REMARK  113  A    between atoms: _271  and  _274
REMARK  114  A    between atoms: _274  and  _275
REMARK  115  A    between atoms: _277  and  _279
REMARK  116  A    between atoms: _279  and  _280
REMARK  117  A    between atoms: _279  and  _282
REMARK  118  A    between atoms: _282  and  _283
REMARK  119  A    between atoms: _286  and  _288
REMARK  120  A    between atoms: _288  and  _289
REMARK  121  A    between atoms: _288  and  _291
REMARK  122  A    between atoms: _291  and  _292
REMARK  123  A    between atoms: _297  and  _298
REMARK  124  A    between atoms: _300  and  _302
REMARK  125  A    between atoms: _302  and  _303
REMARK  126  A    between atoms: _302  and  _305
REMARK  127  A    between atoms: _305  and  _306
REMARK  128  A    between atoms: _312  and  _314
REMARK  129  A    between atoms: _314  and  _315
REMARK  130  A    between atoms: _318  and  _320
REMARK  131  A    between atoms: _320  and  _321
REMARK  132  A    between atoms: _320  and  _323
REMARK  133  A    between atoms: _323  and  _324
REMARK  134  A    between atoms: _327  and  _329
REMARK  135  A    between atoms: _329  and  _330
REMARK  136  A    between atoms: _329  and  _332
REMARK  137  A    between atoms: _332  and  _333
REMARK  138  A    between atoms: _339  and  _341
REMARK  139  A    between atoms: _341  and  _342
REMARK  140  A    between atoms: _341  and  _344
REMARK  141  A    between atoms: _344  and  _345
REMARK  142  A    between atoms: _345  and  _346
REMARK  143  A    between atoms: _348  and  _350
REMARK  144  A    between atoms: _350  and  _351
REMARK  145  A    between atoms: _350  and  _353
REMARK  146  A    between atoms: _353  and  _354
REMARK  147  A    between atoms: _356  and  _358
REMARK  148  A    between atoms: _358  and  _359
REMARK  149  A    between atoms: _362  and  _364
REMARK  150  A    between atoms: _364  and  _365
REMARK  151  A    between atoms: _364  and  _367
REMARK  152  A    between atoms: _367  and  _368
REMARK  153  A    between atoms: _368  and  _369
REMARK  154  A    between atoms: _371  and  _373
REMARK  155  A    between atoms: _373  and  _374
REMARK  156  A    between atoms: _373  and  _376
REMARK  157  A    between atoms: _376  and  _377
REMARK  158  A    between atoms: _382  and  _383
REMARK  159  A    between atoms: _385  and  _387
REMARK  160  A    between atoms: _387  and  _388
REMARK  161  A    between atoms: _387  and  _390
REMARK  162  A    between atoms: _390  and  _391
REMARK  163  A    between atoms: _391  and  _392
REMARK  164  A    between atoms: _395  and  _397
REMARK  165  A    between atoms: _397  and  _398
REMARK  166  A    between atoms: _397  and  _400
REMARK  167  A    between atoms: _400  and  _401
REMARK  168  A    between atoms: _404  and  _406
REMARK  169  A    between atoms: _406  and  _407
REMARK  170  A    between atoms: _406  and  _409
REMARK  171  A    between atoms: _411  and  _413
REMARK  172  A    between atoms: _413  and  _414
REMARK  173  A    between atoms: _413  and  _416
REMARK  174  A    between atoms: _416  and  _417
REMARK  175  A    between atoms: _417  and  _418
REMARK  176  A    between atoms: _423  and  _425
REMARK  177  A    between atoms: _425  and  _426
REMARK  178  A    between atoms: _428  and  _430
REMARK  179  A    between atoms: _430  and  _431
REMARK  180  A    between atoms: _430  and  _433
REMARK  181  A    between atoms: _433  and  _434
REMARK  182  A    between atoms: _434  and  _435
REMARK  183  A    between atoms: _437  and  _439
REMARK  184  A    between atoms: _439  and  _440
REMARK  185  A    between atoms: _439  and  _442
REMARK  186  A    between atoms: _442  and  _443
REMARK  187  A    between atoms: _448  and  _450
REMARK  188  A    between atoms: _450  and  _451
REMARK  189  A    between atoms: _450  and  _453
REMARK  190  A    between atoms: _453  and  _454
REMARK  191  A    between atoms: _454  and  _455
REMARK  192  A    between atoms: _457  and  _459
REMARK  193  A    between atoms: _459  and  _460
REMARK  194  A    between atoms: _459  and  _462
REMARK  195  A    between atoms: _462  and  _463
REMARK  196  A    between atoms: _466  and  _468
REMARK  197  A    between atoms: _468  and  _469
REMARK  198  A    between atoms: _468  and  _471
REMARK  199  A    between atoms: _474  and  _476
REMARK  200  A    between atoms: _476  and  _477
REMARK  201  A    between atoms: _476  and  _479
REMARK  202  A    between atoms: _479  and  _480
REMARK  203  A    between atoms: _483  and  _485
REMARK  204  A    between atoms: _485  and  _486
REMARK  205  A    between atoms: _485  and  _488
REMARK  206  A    between atoms: _488  and  _489
REMARK  207  A    between atoms: _492  and  _494
REMARK  208  A    between atoms: _494  and  _495
REMARK  209  A    between atoms: _494  and  _497
REMARK  210  A    between atoms: _497  and  _498
REMARK  211  A    between atoms: _501  and  _503
REMARK  212  A    between atoms: _503  and  _504
REMARK  213  A    between atoms: _503  and  _506
REMARK  214  A    between atoms: _506  and  _507
REMARK  215  A    between atoms: _507  and  _508
REMARK  216  A    between atoms: _511  and  _513
REMARK  217  A    between atoms: _513  and  _514
REMARK  218  A    between atoms: _513  and  _516
REMARK  219  A    between atoms: _516  and  _517
REMARK  220  A    between atoms: _523  and  _525
REMARK  221  A    between atoms: _525  and  _526
REMARK  222  A    between atoms: _525  and  _528
REMARK  223  A    between atoms: _530  and  _532
REMARK  224  A    between atoms: _532  and  _533
REMARK  225  A    between atoms: _532  and  _535
REMARK  226  A    between atoms: _535  and  _536
REMARK  227  A    between atoms: _542  and  _544
REMARK  228  A    between atoms: _544  and  _545
REMARK  229  A    between atoms: _544  and  _547
REMARK  230  A    between atoms: _547  and  _548
REMARK  231  A    between atoms: _553  and  _554
REMARK  232  A    between atoms: _556  and  _558
REMARK  233  A    between atoms: _558  and  _559
REMARK  234  A    between atoms: _558  and  _561
REMARK  235  A    between atoms: _561  and  _562
REMARK  236  A    between atoms: _565  and  _567
REMARK  237  A    between atoms: _567  and  _568
REMARK  238  A    between atoms: _567  and  _570
REMARK  239  A    between atoms: _570  and  _571
REMARK  240  A    between atoms: _577  and  _579
REMARK  241  A    between atoms: _579  and  _580
REMARK  242  A    between atoms: _579  and  _582
REMARK  243  A    between atoms: _582  and  _583
REMARK  244  A    between atoms: _583  and  _584
REMARK  245  A    between atoms: _584  and  _585
REMARK  246  A    between atoms: _594  and  _596
REMARK  247  A    between atoms: _596  and  _597
REMARK  248  A    between atoms: _596  and  _599
REMARK  249  A    between atoms: _599  and  _600
REMARK  250  A    between atoms: _600  and  _601
REMARK  251  A    between atoms: _604  and  _606
REMARK  252  A    between atoms: _606  and  _607
REMARK  253  A    between atoms: _606  and  _609
REMARK  254  A    between atoms: _609  and  _610
REMARK  255  A    between atoms: _612  and  _614
REMARK  256  A    between atoms: _614  and  _615
REMARK  257  A    between atoms: _614  and  _617
REMARK  258  A    between atoms: _617  and  _618
REMARK  259  A    between atoms: _621  and  _623
REMARK  260  A    between atoms: _623  and  _624
REMARK  261  A    between atoms: _623  and  _626
REMARK  262  A    between atoms: _629  and  _631
REMARK  263  A    between atoms: _631  and  _632
REMARK  264  A    between atoms: _631  and  _634
REMARK  265  A    between atoms: _634  and  _635
REMARK  266  A    between atoms: _635  and  _636
REMARK  267  A    between atoms: _639  and  _641
REMARK  268  A    between atoms: _641  and  _642
REMARK  269  A    between atoms: _641  and  _644
REMARK  270  A    between atoms: _644  and  _645
REMARK  271  A    between atoms: _651  and  _653
REMARK  272  A    between atoms: _653  and  _654
REMARK  273  A    between atoms: _653  and  _656
REMARK  274  A    between atoms: _656  and  _657
REMARK  275  A    between atoms: _660  and  _662
REMARK  276  A    between atoms: _662  and  _663
REMARK  277  A    between atoms: _662  and  _665
REMARK  278  A    between atoms: _665  and  _666
REMARK                            x       y       z     vdW  Elec       q    Type
REMARK                         _______ _______ _______ _____ _____    ______ ____
ROOT
ATOM      1  CB  PHE A   1     -20.675  61.235  15.154  0.00  0.00    +0.051 C 
ENDROOT
BRANCH   1   2
ATOM      2  CG  PHE A   1     -21.411  62.006  14.096  0.00  0.00    -0.020 A 
ATOM      3  CD2 PHE A   1     -21.193  63.372  13.920  0.00  0.00    -0.004 A 
ATOM      4  CE2 PHE A   1     -21.842  64.075  12.896  0.00  0.00    -0.000 A 
ATOM      5  CZ  PHE A   1     -22.716  63.403  12.037  0.00  0.00    -0.000 A 
ATOM      6  CE1 PHE A   1     -22.941  62.042  12.208  0.00  0.00    -0.000 A 
ATOM      7  CD1 PHE A   1     -22.289  61.352  13.233  0.00  0.00    -0.004 A 
ENDBRANCH   1   2
BRANCH   1   8
ATOM      8  CA  PHE A   1     -20.328  62.057  16.399  0.00  0.00    +0.137 C 
BRANCH   8   9
ATOM      9  N   PHE A   1     -19.056  62.751  16.211  0.00  0.00    -0.239 NA
ATOM     10  H   PHE A   1     -18.304  62.294  15.656  0.00  0.00    +0.142 HD
ENDBRANCH   8   9
BRANCH   8  11
ATOM     11  C   PHE A   1     -20.424  61.154  17.609  0.00  0.00    +0.224 C 
ATOM     12  O   PHE A   1     -19.471  60.472  17.978  0.00  0.00    -0.287 OA
ENDBRANCH   8  11
ENDBRANCH   1   8
TORSDOF 4
REMARK  Name = ../refined-set-2016/2oax/2oax_pocket.pdb
REMARK  278 active torsions:
REMARK  status: ('A' for Active; 'I' for Inactive)
REMARK    1  A    between atoms: _1  and  _3
REMARK    2  A    between atoms: _3  and  _4
REMARK    3  A    between atoms: _7  and  _9
REMARK    4  A    between atoms: _9  and  _10
REMARK    5  A    between atoms: _9  and  _12
REMARK    6  A    between atoms: _12  and  _13
REMARK    7  A    between atoms: _13  and  _14
REMARK    8  A    between atoms: _17  and  _19
REMARK    9  A    between atoms: _19  and  _20
REMARK   10  A    between atoms: _19  and  _22
REMARK   11  A    between atoms: _22  and  _23
REMARK   12  A    between atoms: _26  and  _28
REMARK   13  A    between atoms: _28  and  _29
REMARK   14  A    between atoms: _28  and  _31
REMARK   15  A    between atoms: _31  and  _32
REMARK   16  A    between atoms: _35  and  _37
REMARK   17  A    between atoms: _37  and  _38
REMARK   18  A    between atoms: _37  and  _40
REMARK   19  A    between atoms: _40  and  _41
REMARK   20  A    between atoms: _43  and  _45
REMARK   21  A    between atoms: _45  and  _46
REMARK   22  A    between atoms: _45  and  _48
REMARK   23  A    between atoms: _48  and  _49
REMARK   24  A    between atoms: _52  and  _54
REMARK   25  A    between atoms: _54  and  _55
REMARK   26  A    between atoms: _54  and  _57
REMARK   27  A    between atoms: _57  and  _58
REMARK   28  A    between atoms: _61  and  _63
REMARK   29  A    between atoms: _63  and  _64
REMARK   30  A    between atoms: _63  and  _66
REMARK   31  A    between atoms: _66  and  _67
REMARK   32  A    between atoms: _72  and  _74
REMARK   33  A    between atoms: _74  and  _75
REMARK   34  A    between atoms: _74  and  _77
REMARK   35  A    between atoms: _77  and  _78
REMARK   36  A    between atoms: _78  and  _79
REMARK   37  A    between atoms: _79  and  _80
REMARK   38  A    between atoms: _89  and  _91
REMARK   39  A    between atoms: _91  and  _92
REMARK   40  A    between atoms: _91  and  _94
REMARK   41  A    between atoms: _94  and  _95
REMARK   42  A    between atoms: _98  and  _100
REMARK   43  A    between atoms: _100  and  _101
REMARK   44  A    between atoms: _104  and  _106
REMARK   45  A    between atoms: _106  and  _107
REMARK   46  A    between atoms: _109  and  _111
REMARK   47  A    between atoms: _111  and  _112
REMARK   48  A    between atoms: _111  and  _114
REMARK   49  A    between atoms: _114  and  _115
REMARK   50  A    between atoms: _115  and  _116
REMARK   51  A    between atoms: _116  and  _117
REMARK   52  A    between atoms: _117  and  _118
REMARK   53  A    between atoms: _122  and  _124
REMARK   54  A    between atoms: _124  and  _125
REMARK   55  A    between atoms: _124  and  _127
REMARK   56  A    between atoms: _127  and  _128
REMARK   57  A    between atoms: _128  and  _129
REMARK   58  A    between atoms: _134  and  _136
REMARK   59  A    between atoms: _136  and  _137
REMARK   60  A    between atoms: _136  and  _139
REMARK   61  A    between atoms: _139  and  _140
REMARK   62  A    between atoms: _140  and  _141
REMARK   63  A    between atoms: _143  and  _145
REMARK   64  A    between atoms: _145  and  _146
REMARK   65  A    between atoms: _145  and  _148
REMARK   66  A    between atoms: _148  and  _149
REMARK   67  A    between atoms: _159  and  _161
REMARK   68  A    between atoms: _161  and  _162
REMARK   69  A    between atoms: _161  and  _164
REMARK   70  A    between atoms: _164  and  _165
REMARK   71  A    between atoms: _165  and  _166
REMARK   72  A    between atoms: _168  and  _170
REMARK   73  A    between atoms: _170  and  _171
REMARK   74  A    between atoms: _170  and  _173
REMARK   75  A    between atoms: _175  and  _177
REMARK   76  A    between atoms: _177  and  _178
REMARK   77  A    between atoms: _177  and  _180
REMARK   78  A    between atoms: _180  and  _181
REMARK   79  A    between atoms: _184  and  _186
REMARK   80  A    between atoms: _186  and  _187
REMARK   81  A    between atoms: _186  and  _189
REMARK   82  A    between atoms: _189  and  _190
REMARK   83  A    between atoms: _193  and  _195
REMARK   84  A    between atoms: _195  and  _196
REMARK   85  A    between atoms: _195  and  _198
REMARK   86  A    between atoms: _198  and  _199
REMARK   87  A    between atoms: _201  and  _203
REMARK   88  A    between atoms: _203  and  _204
REMARK   89  A    between atoms: _203  and  _206
REMARK   90  A    between atoms: _206  and  _207
REMARK   91  A    between atoms: _213  and  _215
REMARK   92  A    between atoms: _215  and  _216
REMARK   93  A    between atoms: _219  and  _221
REMARK   94  A    between atoms: _221  and  _222
REMARK   95  A    between atoms: _221  and  _224
REMARK   96  A    between atoms: _224  and  _225
REMARK   97  A    between atoms: _228  and  _230
REMARK   98  A    between atoms: _230  and  _231
REMARK   99  A    between atoms: _230  and  _233
REMARK  100  A    between atoms: _233  and  _234
REMARK  101  A    between atoms: _236  and  _238
REMARK  102  A    between atoms: _238  and  _239
REMARK  103  A    between atoms: _238  and  _241
REMARK  104  A    between atoms: _241  and  _242
REMARK  105  A    between atoms: _252  and  _254
REMARK  106  A    between atoms: _254  and  _255
REMARK  107  A    between atoms: _254  and  _257
REMARK  108  A    between atoms: _257  and  _258
REMARK  109  A    between atoms: _258  and  _259
REMARK  110  A    between atoms: _259  and  _260
REMARK  111  A    between atoms: _269  and  _271
REMARK  112  A    between atoms: _271  and  _272
REMARK  113  A    between atoms: _271  and  _274
REMARK  114  A    between atoms: _274  and  _275
REMARK  115  A    between atoms: _277  and  _279
REMARK  116  A    between atoms: _279  and  _280
REMARK  117  A    between atoms: _279  and  _282
REMARK  118  A    between atoms: _282  and  _283
REMARK  119  A    between atoms: _286  and  _288
REMARK  120  A    between atoms: _288  and  _289
REMARK  121  A    between atoms: _288  and  _291
REMARK  122  A    between atoms: _291  and  _292
REMARK  123  A    between atoms: _297  and  _298
REMARK  124  A    between atoms: _300  and  _302
REMARK  125  A    between atoms: _302  and  _303
REMARK  126  A    between atoms: _302  and  _305
REMARK  127  A    between atoms: _305  and  _306
REMARK  128  A    between atoms: _312  and  _314
REMARK  129  A    between atoms: _314  and  _315
REMARK  130  A    between atoms: _318  and  _320
REMARK  131  A    between atoms: _320  and  _321
REMARK  132  A    between atoms: _320  and  _323
REMARK  133  A    between atoms: _323  and  _324
REMARK  134  A    between atoms: _327  and  _329
REMARK  135  A    between atoms: _329  and  _330
REMARK  136  A    between atoms: _329  and  _332
REMARK  137  A    between atoms: _332  and  _333
REMARK  138  A    between atoms: _339  and  _341
REMARK  139  A    between atoms: _341  and  _342
REMARK  140  A    between atoms: _341  and  _344
REMARK  141  A    between atoms: _344  and  _345
REMARK  142  A    between atoms: _345  and  _346
REMARK  143  A    between atoms: _348  and  _350
REMARK  144  A    between atoms: _350  and  _351
REMARK  145  A    between atoms: _350  and  _353
REMARK  146  A    between atoms: _353  and  _354
REMARK  147  A    between atoms: _356  and  _358
REMARK  148  A    between atoms: _358  and  _359
REMARK  149  A    between atoms: _362  and  _364
REMARK  150  A    between atoms: _364  and  _365
REMARK  151  A    between atoms: _364  and  _367
REMARK  152  A    between atoms: _367  and  _368
REMARK  153  A    between atoms: _368  and  _369
REMARK  154  A    between atoms: _371  and  _373
REMARK  155  A    between atoms: _373  and  _374
REMARK  156  A    between atoms: _373  and  _376
REMARK  157  A    between atoms: _376  and  _377
REMARK  158  A    between atoms: _382  and  _383
REMARK  159  A    between atoms: _385  and  _387
REMARK  160  A    between atoms: _387  and  _388
REMARK  161  A    between atoms: _387  and  _390
REMARK  162  A    between atoms: _390  and  _391
REMARK  163  A    between atoms: _391  and  _392
REMARK  164  A    between atoms: _395  and  _397
REMARK  165  A    between atoms: _397  and  _398
REMARK  166  A    between atoms: _397  and  _400
REMARK  167  A    between atoms: _400  and  _401
REMARK  168  A    between atoms: _404  and  _406
REMARK  169  A    between atoms: _406  and  _407
REMARK  170  A    between atoms: _406  and  _409
REMARK  171  A    between atoms: _411  and  _413
REMARK  172  A    between atoms: _413  and  _414
REMARK  173  A    between atoms: _413  and  _416
REMARK  174  A    between atoms: _416  and  _417
REMARK  175  A    between atoms: _417  and  _418
REMARK  176  A    between atoms: _423  and  _425
REMARK  177  A    between atoms: _425  and  _426
REMARK  178  A    between atoms: _428  and  _430
REMARK  179  A    between atoms: _430  and  _431
REMARK  180  A    between atoms: _430  and  _433
REMARK  181  A    between atoms: _433  and  _434
REMARK  182  A    between atoms: _434  and  _435
REMARK  183  A    between atoms: _437  and  _439
REMARK  184  A    between atoms: _439  and  _440
REMARK  185  A    between atoms: _439  and  _442
REMARK  186  A    between atoms: _442  and  _443
REMARK  187  A    between atoms: _448  and  _450
REMARK  188  A    between atoms: _450  and  _451
REMARK  189  A    between atoms: _450  and  _453
REMARK  190  A    between atoms: _453  and  _454
REMARK  191  A    between atoms: _454  and  _455
REMARK  192  A    between atoms: _457  and  _459
REMARK  193  A    between atoms: _459  and  _460
REMARK  194  A    between atoms: _459  and  _462
REMARK  195  A    between atoms: _462  and  _463
REMARK  196  A    between atoms: _466  and  _468
REMARK  197  A    between atoms: _468  and  _469
REMARK  198  A    between atoms: _468  and  _471
REMARK  199  A    between atoms: _474  and  _476
REMARK  200  A    between atoms: _476  and  _477
REMARK  201  A    between atoms: _476  and  _479
REMARK  202  A    between atoms: _479  and  _480
REMARK  203  A    between atoms: _483  and  _485
REMARK  204  A    between atoms: _485  and  _486
REMARK  205  A    between atoms: _485  and  _488
REMARK  206  A    between atoms: _488  and  _489
REMARK  207  A    between atoms: _492  and  _494
REMARK  208  A    between atoms: _494  and  _495
REMARK  209  A    between atoms: _494  and  _497
REMARK  210  A    between atoms: _497  and  _498
REMARK  211  A    between atoms: _501  and  _503
REMARK  212  A    between atoms: _503  and  _504
REMARK  213  A    between atoms: _503  and  _506
REMARK  214  A    between atoms: _506  and  _507
REMARK  215  A    between atoms: _507  and  _508
REMARK  216  A    between atoms: _511  and  _513
REMARK  217  A    between atoms: _513  and  _514
REMARK  218  A    between atoms: _513  and  _516
REMARK  219  A    between atoms: _516  and  _517
REMARK  220  A    between atoms: _523  and  _525
REMARK  221  A    between atoms: _525  and  _526
REMARK  222  A    between atoms: _525  and  _528
REMARK  223  A    between atoms: _530  and  _532
REMARK  224  A    between atoms: _532  and  _533
REMARK  225  A    between atoms: _532  and  _535
REMARK  226  A    between atoms: _535  and  _536
REMARK  227  A    between atoms: _542  and  _544
REMARK  228  A    between atoms: _544  and  _545
REMARK  229  A    between atoms: _544  and  _547
REMARK  230  A    between atoms: _547  and  _548
REMARK  231  A    between atoms: _553  and  _554
REMARK  232  A    between atoms: _556  and  _558
REMARK  233  A    between atoms: _558  and  _559
REMARK  234  A    between atoms: _558  and  _561
REMARK  235  A    between atoms: _561  and  _562
REMARK  236  A    between atoms: _565  and  _567
REMARK  237  A    between atoms: _567  and  _568
REMARK  238  A    between atoms: _567  and  _570
REMARK  239  A    between atoms: _570  and  _571
REMARK  240  A    between atoms: _577  and  _579
REMARK  241  A    between atoms: _579  and  _580
REMARK  242  A    between atoms: _579  and  _582
REMARK  243  A    between atoms: _582  and  _583
REMARK  244  A    between atoms: _583  and  _584
REMARK  245  A    between atoms: _584  and  _585
REMARK  246  A    between atoms: _594  and  _596
REMARK  247  A    between atoms: _596  and  _597
REMARK  248  A    between atoms: _596  and  _599
REMARK  249  A    between atoms: _599  and  _600
REMARK  250  A    between atoms: _600  and  _601
REMARK  251  A    between atoms: _604  and  _606
REMARK  252  A    between atoms: _606  and  _607
REMARK  253  A    between atoms: _606  and  _609
REMARK  254  A    between atoms: _609  and  _610
REMARK  255  A    between atoms: _612  and  _614
REMARK  256  A    between atoms: _614  and  _615
REMARK  257  A    between atoms: _614  and  _617
REMARK  258  A    between atoms: _617  and  _618
REMARK  259  A    between atoms: _621  and  _623
REMARK  260  A    between atoms: _623  and  _624
REMARK  261  A    between atoms: _623  and  _626
REMARK  262  A    between atoms: _629  and  _631
REMARK  263  A    between atoms: _631  and  _632
REMARK  264  A    between atoms: _631  and  _634
REMARK  265  A    between atoms: _634  and  _635
REMARK  266  A    between atoms: _635  and  _636
REMARK  267  A    between atoms: _639  and  _641
REMARK  268  A    between atoms: _641  and  _642
REMARK  269  A    between atoms: _641  and  _644
REMARK  270  A    between atoms: _644  and  _645
REMARK  271  A    between atoms: _651  and  _653
REMARK  272  A    between atoms: _653  and  _654
REMARK  273  A    between atoms: _653  and  _656
REMARK  274  A    between atoms: _656  and  _657
REMARK  275  A    between atoms: _660  and  _662
REMARK  276  A    between atoms: _662  and  _663
REMARK  277  A    between atoms: _662  and  _665
REMARK  278  A    between atoms: _665  and  _666
REMARK                            x       y       z     vdW  Elec       q    Type
REMARK                         _______ _______ _______ _____ _____    ______ ____
ROOT
ATOM      1  CA  MET A   1     -25.209  58.683  14.896  0.00  0.00    +0.134 C 
ENDROOT
BRANCH   1   2
ATOM      2  N   MET A   1     -25.194  59.882  15.731  0.00  0.00    -0.239 NA
ATOM      3  H   MET A   1     -24.867  59.803  16.715  0.00  0.00    +0.142 HD
ENDBRANCH   1   2
BRANCH   1   4
ATOM      4  C   MET A   1     -26.663  58.374  14.509  0.00  0.00    +0.224 C 
ATOM      5  O   MET A   1     -26.927  57.799  13.453  0.00  0.00    -0.287 OA
ENDBRANCH   1   4
BRANCH   1   6
ATOM      6  CB  MET A   1     -24.586  57.486  15.645  0.00  0.00    +0.037 C 
BRANCH   6   7
ATOM      7  CG  MET A   1     -23.062  57.387  15.525  0.00  0.00    +0.059 C 
BRANCH   7   8
ATOM      8  SD  MET A   1     -22.359  55.904  16.291  0.00  0.00    -0.139 S 
ATOM      9  CE  MET A   1     -20.725  56.458  16.729  0.00  0.00    +0.069 C 
ENDBRANCH   7   8
ENDBRANCH   6   7
ENDBRANCH   1   6
TORSDOF 5
REMARK  Name = ../refined-set-2016/2oax/2oax_pocket.pdb
REMARK  278 active torsions:
REMARK  status: ('A' for Active; 'I' for Inactive)
REMARK    1  A    between atoms: _1  and  _3
REMARK    2  A    between atoms: _3  and  _4
REMARK    3  A    between atoms: _7  and  _9
REMARK    4  A    between atoms: _9  and  _10
REMARK    5  A    between atoms: _9  and  _12
REMARK    6  A    between atoms: _12  and  _13
REMARK    7  A    between atoms: _13  and  _14
REMARK    8  A    between atoms: _17  and  _19
REMARK    9  A    between atoms: _19  and  _20
REMARK   10  A    between atoms: _19  and  _22
REMARK   11  A    between atoms: _22  and  _23
REMARK   12  A    between atoms: _26  and  _28
REMARK   13  A    between atoms: _28  and  _29
REMARK   14  A    between atoms: _28  and  _31
REMARK   15  A    between atoms: _31  and  _32
REMARK   16  A    between atoms: _35  and  _37
REMARK   17  A    between atoms: _37  and  _38
REMARK   18  A    between atoms: _37  and  _40
REMARK   19  A    between atoms: _40  and  _41
REMARK   20  A    between atoms: _43  and  _45
REMARK   21  A    between atoms: _45  and  _46
REMARK   22  A    between atoms: _45  and  _48
REMARK   23  A    between atoms: _48  and  _49
REMARK   24  A    between atoms: _52  and  _54
REMARK   25  A    between atoms: _54  and  _55
REMARK   26  A    between atoms: _54  and  _57
REMARK   27  A    between atoms: _57  and  _58
REMARK   28  A    between atoms: _61  and  _63
REMARK   29  A    between atoms: _63  and  _64
REMARK   30  A    between atoms: _63  and  _66
REMARK   31  A    between atoms: _66  and  _67
REMARK   32  A    between atoms: _72  and  _74
REMARK   33  A    between atoms: _74  and  _75
REMARK   34  A    between atoms: _74  and  _77
REMARK   35  A    between atoms: _77  and  _78
REMARK   36  A    between atoms: _78  and  _79
REMARK   37  A    between atoms: _79  and  _80
REMARK   38  A    between atoms: _89  and  _91
REMARK   39  A    between atoms: _91  and  _92
REMARK   40  A    between atoms: _91  and  _94
REMARK   41  A    between atoms: _94  and  _95
REMARK   42  A    between atoms: _98  and  _100
REMARK   43  A    between atoms: _100  and  _101
REMARK   44  A    between atoms: _104  and  _106
REMARK   45  A    between atoms: _106  and  _107
REMARK   46  A    between atoms: _109  and  _111
REMARK   47  A    between atoms: _111  and  _112
REMARK   48  A    between atoms: _111  and  _114
REMARK   49  A    between atoms: _114  and  _115
REMARK   50  A    between atoms: _115  and  _116
REMARK   51  A    between atoms: _116  and  _117
REMARK   52  A    between atoms: _117  and  _118
REMARK   53  A    between atoms: _122  and  _124
REMARK   54  A    between atoms: _124  and  _125
REMARK   55  A    between atoms: _124  and  _127
REMARK   56  A    between atoms: _127  and  _128
REMARK   57  A    between atoms: _128  and  _129
REMARK   58  A    between atoms: _134  and  _136
REMARK   59  A    between atoms: _136  and  _137
REMARK   60  A    between atoms: _136  and  _139
REMARK   61  A    between atoms: _139  and  _140
REMARK   62  A    between atoms: _140  and  _141
REMARK   63  A    between atoms: _143  and  _145
REMARK   64  A    between atoms: _145  and  _146
REMARK   65  A    between atoms: _145  and  _148
REMARK   66  A    between atoms: _148  and  _149
REMARK   67  A    between atoms: _159  and  _161
REMARK   68  A    between atoms: _161  and  _162
REMARK   69  A    between atoms: _161  and  _164
REMARK   70  A    between atoms: _164  and  _165
REMARK   71  A    between atoms: _165  and  _166
REMARK   72  A    between atoms: _168  and  _170
REMARK   73  A    between atoms: _170  and  _171
REMARK   74  A    between atoms: _170  and  _173
REMARK   75  A    between atoms: _175  and  _177
REMARK   76  A    between atoms: _177  and  _178
REMARK   77  A    between atoms: _177  and  _180
REMARK   78  A    between atoms: _180  and  _181
REMARK   79  A    between atoms: _184  and  _186
REMARK   80  A    between atoms: _186  and  _187
REMARK   81  A    between atoms: _186  and  _189
REMARK   82  A    between atoms: _189  and  _190
REMARK   83  A    between atoms: _193  and  _195
REMARK   84  A    between atoms: _195  and  _196
REMARK   85  A    between atoms: _195  and  _198
REMARK   86  A    between atoms: _198  and  _199
REMARK   87  A    between atoms: _201  and  _203
REMARK   88  A    between atoms: _203  and  _204
REMARK   89  A    between atoms: _203  and  _206
REMARK   90  A    between atoms: _206  and  _207
REMARK   91  A    between atoms: _213  and  _215
REMARK   92  A    between atoms: _215  and  _216
REMARK   93  A    between atoms: _219  and  _221
REMARK   94  A    between atoms: _221  and  _222
REMARK   95  A    between atoms: _221  and  _224
REMARK   96  A    between atoms: _224  and  _225
REMARK   97  A    between atoms: _228  and  _230
REMARK   98  A    between atoms: _230  and  _231
REMARK   99  A    between atoms: _230  and  _233
REMARK  100  A    between atoms: _233  and  _234
REMARK  101  A    between atoms: _236  and  _238
REMARK  102  A    between atoms: _238  and  _239
REMARK  103  A    between atoms: _238  and  _241
REMARK  104  A    between atoms: _241  and  _242
REMARK  105  A    between atoms: _252  and  _254
REMARK  106  A    between atoms: _254  and  _255
REMARK  107  A    between atoms: _254  and  _257
REMARK  108  A    between atoms: _257  and  _258
REMARK  109  A    between atoms: _258  and  _259
REMARK  110  A    between atoms: _259  and  _260
REMARK  111  A    between atoms: _269  and  _271
REMARK  112  A    between atoms: _271  and  _272
REMARK  113  A    between atoms: _271  and  _274
REMARK  114  A    between atoms: _274  and  _275
REMARK  115  A    between atoms: _277  and  _279
REMARK  116  A    between atoms: _279  and  _280
REMARK  117  A    between atoms: _279  and  _282
REMARK  118  A    between atoms: _282  and  _283
REMARK  119  A    between atoms: _286  and  _288
REMARK  120  A    between atoms: _288  and  _289
REMARK  121  A    between atoms: _288  and  _291
REMARK  122  A    between atoms: _291  and  _292
REMARK  123  A    between atoms: _297  and  _298
REMARK  124  A    between atoms: _300  and  _302
REMARK  125  A    between atoms: _302  and  _303
REMARK  126  A    between atoms: _302  and  _305
REMARK  127  A    between atoms: _305  and  _306
REMARK  128  A    between atoms: _312  and  _314
REMARK  129  A    between atoms: _314  and  _315
REMARK  130  A    between atoms: _318  and  _320
REMARK  131  A    between atoms: _320  and  _321
REMARK  132  A    between atoms: _320  and  _323
REMARK  133  A    between atoms: _323  and  _324
REMARK  134  A    between atoms: _327  and  _329
REMARK  135  A    between atoms: _329  and  _330
REMARK  136  A    between atoms: _329  and  _332
REMARK  137  A    between atoms: _332  and  _333
REMARK  138  A    between atoms: _339  and  _341
REMARK  139  A    between atoms: _341  and  _342
REMARK  140  A    between atoms: _341  and  _344
REMARK  141  A    between atoms: _344  and  _345
REMARK  142  A    between atoms: _345  and  _346
REMARK  143  A    between atoms: _348  and  _350
REMARK  144  A    between atoms: _350  and  _351
REMARK  145  A    between atoms: _350  and  _353
REMARK  146  A    between atoms: _353  and  _354
REMARK  147  A    between atoms: _356  and  _358
REMARK  148  A    between atoms: _358  and  _359
REMARK  149  A    between atoms: _362  and  _364
REMARK  150  A    between atoms: _364  and  _365
REMARK  151  A    between atoms: _364  and  _367
REMARK  152  A    between atoms: _367  and  _368
REMARK  153  A    between atoms: _368  and  _369
REMARK  154  A    between atoms: _371  and  _373
REMARK  155  A    between atoms: _373  and  _374
REMARK  156  A    between atoms: _373  and  _376
REMARK  157  A    between atoms: _376  and  _377
REMARK  158  A    between atoms: _382  and  _383
REMARK  159  A    between atoms: _385  and  _387
REMARK  160  A    between atoms: _387  and  _388
REMARK  161  A    between atoms: _387  and  _390
REMARK  162  A    between atoms: _390  and  _391
REMARK  163  A    between atoms: _391  and  _392
REMARK  164  A    between atoms: _395  and  _397
REMARK  165  A    between atoms: _397  and  _398
REMARK  166  A    between atoms: _397  and  _400
REMARK  167  A    between atoms: _400  and  _401
REMARK  168  A    between atoms: _404  and  _406
REMARK  169  A    between atoms: _406  and  _407
REMARK  170  A    between atoms: _406  and  _409
REMARK  171  A    between atoms: _411  and  _413
REMARK  172  A    between atoms: _413  and  _414
REMARK  173  A    between atoms: _413  and  _416
REMARK  174  A    between atoms: _416  and  _417
REMARK  175  A    between atoms: _417  and  _418
REMARK  176  A    between atoms: _423  and  _425
REMARK  177  A    between atoms: _425  and  _426
REMARK  178  A    between atoms: _428  and  _430
REMARK  179  A    between atoms: _430  and  _431
REMARK  180  A    between atoms: _430  and  _433
REMARK  181  A    between atoms: _433  and  _434
REMARK  182  A    between atoms: _434  and  _435
REMARK  183  A    between atoms: _437  and  _439
REMARK  184  A    between atoms: _439  and  _440
REMARK  185  A    between atoms: _439  and  _442
REMARK  186  A    between atoms: _442  and  _443
REMARK  187  A    between atoms: _448  and  _450
REMARK  188  A    between atoms: _450  and  _451
REMARK  189  A    between atoms: _450  and  _453
REMARK  190  A    between atoms: _453  and  _454
REMARK  191  A    between atoms: _454  and  _455
REMARK  192  A    between atoms: _457  and  _459
REMARK  193  A    between atoms: _459  and  _460
REMARK  194  A    between atoms: _459  and  _462
REMARK  195  A    between atoms: _462  and  _463
REMARK  196  A    between atoms: _466  and  _468
REMARK  197  A    between atoms: _468  and  _469
REMARK  198  A    between atoms: _468  and  _471
REMARK  199  A    between atoms: _474  and  _476
REMARK  200  A    between atoms: _476  and  _477
REMARK  201  A    between atoms: _476  and  _479
REMARK  202  A    between atoms: _479  and  _480
REMARK  203  A    between atoms: _483  and  _485
REMARK  204  A    between atoms: _485  and  _486
REMARK  205  A    between atoms: _485  and  _488
REMARK  206  A    between atoms: _488  and  _489
REMARK  207  A    between atoms: _492  and  _494
REMARK  208  A    between atoms: _494  and  _495
REMARK  209  A    between atoms: _494  and  _497
REMARK  210  A    between atoms: _497  and  _498
REMARK  211  A    between atoms: _501  and  _503
REMARK  212  A    between atoms: _503  and  _504
REMARK  213  A    between atoms: _503  and  _506
REMARK  214  A    between atoms: _506  and  _507
REMARK  215  A    between atoms: _507  and  _508
REMARK  216  A    between atoms: _511  and  _513
REMARK  217  A    between atoms: _513  and  _514
REMARK  218  A    between atoms: _513  and  _516
REMARK  219  A    between atoms: _516  and  _517
REMARK  220  A    between atoms: _523  and  _525
REMARK  221  A    between atoms: _525  and  _526
REMARK  222  A    between atoms: _525  and  _528
REMARK  223  A    between atoms: _530  and  _532
REMARK  224  A    between atoms: _532  and  _533
REMARK  225  A    between atoms: _532  and  _535
REMARK  226  A    between atoms: _535  and  _536
REMARK  227  A    between atoms: _542  and  _544
REMARK  228  A    between atoms: _544  and  _545
REMARK  229  A    between atoms: _544  and  _547
REMARK  230  A    between atoms: _547  and  _548
REMARK  231  A    between atoms: _553  and  _554
REMARK  232  A    between atoms: _556  and  _558
REMARK  233  A    between atoms: _558  and  _559
REMARK  234  A    between atoms: _558  and  _561
REMARK  235  A    between atoms: _561  and  _562
REMARK  236  A    between atoms: _565  and  _567
REMARK  237  A    between atoms: _567  and  _568
REMARK  238  A    between atoms: _567  and  _570
REMARK  239  A    between atoms: _570  and  _571
REMARK  240  A    between atoms: _577  and  _579
REMARK  241  A    between atoms: _579  and  _580
REMARK  242  A    between atoms: _579  and  _582
REMARK  243  A    between atoms: _582  and  _583
REMARK  244  A    between atoms: _583  and  _584
REMARK  245  A    between atoms: _584  and  _585
REMARK  246  A    between atoms: _594  and  _596
REMARK  247  A    between atoms: _596  and  _597
REMARK  248  A    between atoms: _596  and  _599
REMARK  249  A    between atoms: _599  and  _600
REMARK  250  A    between atoms: _600  and  _601
REMARK  251  A    between atoms: _604  and  _606
REMARK  252  A    between atoms: _606  and  _607
REMARK  253  A    between atoms: _606  and  _609
REMARK  254  A    between atoms: _609  and  _610
REMARK  255  A    between atoms: _612  and  _614
REMARK  256  A    between atoms: _614  and  _615
REMARK  257  A    between atoms: _614  and  _617
REMARK  258  A    between atoms: _617  and  _618
REMARK  259  A    between atoms: _621  and  _623
REMARK  260  A    between atoms: _623  and  _624
REMARK  261  A    between atoms: _623  and  _626
REMARK  262  A    between atoms: _629  and  _631
REMARK  263  A    between atoms: _631  and  _632
REMARK  264  A    between atoms: _631  and  _634
REMARK  265  A    between atoms: _634  and  _635
REMARK  266  A    between atoms: _635  and  _636
REMARK  267  A    between atoms: _639  and  _641
REMARK  268  A    between atoms: _641  and  _642
REMARK  269  A    between atoms: _641  and  _644
REMARK  270  A    between atoms: _644  and  _645
REMARK  271  A    between atoms: _651  and  _653
REMARK  272  A    between atoms: _653  and  _654
REMARK  273  A    between atoms: _653  and  _656
REMARK  274  A    between atoms: _656  and  _657
REMARK  275  A    between atoms: _660  and  _662
REMARK  276  A    between atoms: _662  and  _663
REMARK  277  A    between atoms: _662  and  _665
REMARK  278  A    between atoms: _665  and  _666
REMARK                            x       y       z     vdW  Elec       q    Type
REMARK                         _______ _______ _______ _____ _____    ______ ____
ROOT
ATOM      1  CA  LEU A   6     -23.472  52.455   8.968  0.00  0.00    +0.149 C 
ENDROOT
BRANCH   1   2
ATOM      2  C   LEU A   6     -22.378  53.174   9.756  0.00  0.00    +0.241 C 
ATOM      3  N   CYS A   7     -22.773  53.911  10.791  0.00  0.00    -0.296 N 
ATOM      4  H   CYS A   7     -23.787  53.979  11.014  0.00  0.00    +0.150 HD
ATOM      5  O   LEU A   6     -21.199  53.071   9.430  0.00  0.00    -0.273 OA
BRANCH   3   6
ATOM      6  CA  CYS A   7     -21.806  54.626  11.618  0.00  0.00    +0.160 C 
BRANCH   6   7
ATOM      7  C   CYS A   7     -21.159  53.619  12.554  0.00  0.00    +0.242 C 
ATOM      8  N   GLN A   8     -21.970  52.678  13.022  0.00  0.00    -0.297 N 
ATOM      9  H   GLN A   8     -22.971  52.685  12.738  0.00  0.00    +0.150 HD
ATOM     10  O   CYS A   7     -19.962  53.693  12.845  0.00  0.00    -0.273 OA
BRANCH   8  11
ATOM     11  CA  GLN A   8     -21.497  51.637  13.921  0.00  0.00    +0.149 C 
BRANCH  11  12
ATOM     12  C   GLN A   8     -20.491  50.780  13.154  0.00  0.00    +0.241 C 
ATOM     13  O   GLN A   8     -19.512  50.284  13.717  0.00  0.00    -0.273 OA
ATOM     14  N   GLY A   9     -20.739  50.623  11.859  0.00  0.00    -0.295 N 
ATOM     15  H   GLY A   9     -21.575  51.076  11.437  0.00  0.00    +0.150 HD
BRANCH  14  16
ATOM     16  CA  GLY A   9     -19.860  49.829  11.027  0.00  0.00    +0.176 C 
BRANCH  16  17
ATOM     17  C   GLY A   9     -18.445  50.363  11.006  0.00  0.00    +0.243 C 
ATOM     18  O   GLY A   9     -17.499  49.622  11.267  0.00  0.00    -0.273 OA
ATOM     19  N   MET A  10     -18.298  51.649  10.695  0.00  0.00    -0.297 N 
ATOM     20  H   MET A  10     -19.139  52.225  10.489  0.00  0.00    +0.150 HD
BRANCH  19  21
ATOM     21  CA  MET A  10     -16.978  52.262  10.638  0.00  0.00    +0.149 C 
BRANCH  21  22
ATOM     22  C   MET A  10     -16.429  52.356  12.058  0.00  0.00    +0.241 C 
ATOM     23  N   HIS A  11     -17.314  52.591  13.027  0.00  0.00    -0.298 N 
ATOM     24  H   HIS A  11     -18.315  52.722  12.777  0.00  0.00    +0.150 HD
ATOM     25  O   MET A  10     -15.227  52.200  12.271  0.00  0.00    -0.273 OA
BRANCH  23  26
ATOM     26  CA  HIS A  11     -16.915  52.670  14.433  0.00  0.00    +0.143 C 
BRANCH  26  27
ATOM     27  C   HIS A  11     -16.189  51.381  14.801  0.00  0.00    +0.227 C 
ATOM     28  O   HIS A  11     -15.231  51.404  15.565  0.00  0.00    -0.286 OA
ENDBRANCH  26  27
BRANCH  26  29
ATOM     29  CB  HIS A  11     -18.142  52.849  15.343  0.00  0.00    +0.075 C 
BRANCH  29  30
ATOM     30  CG  HIS A  11     -17.824  52.803  16.806  0.00  0.00    +0.082 A 
ATOM     31  CD2 HIS A  11     -18.274  51.982  17.792  0.00  0.00    +0.115 A 
ATOM     32  NE2 HIS A  11     -17.655  52.370  18.954  0.00  0.00    -0.221 NA
ATOM     33  CE1 HIS A  11     -16.855  53.389  18.699  0.00  0.00    +0.199 A 
ATOM     34  ND1 HIS A  11     -16.941  53.670  17.409  0.00  0.00    -0.227 NA
ENDBRANCH  29  30
ENDBRANCH  26  29
ENDBRANCH  23  26
ENDBRANCH  21  22
BRANCH  21  35
ATOM     35  CB  MET A  10     -17.061  53.646   9.972  0.00  0.00    +0.041 C 
BRANCH  35  36
ATOM     36  CG  MET A  10     -15.705  54.277   9.604  0.00  0.00    +0.060 C 
BRANCH  36  37
ATOM     37  SD  MET A  10     -14.555  53.163   8.726  0.00  0.00    -0.139 S 
ATOM     38  CE  MET A  10     -15.655  52.394   7.523  0.00  0.00    +0.069 C 
ENDBRANCH  36  37
ENDBRANCH  35  36
ENDBRANCH  21  35
ENDBRANCH  19  21
ENDBRANCH  16  17
ENDBRANCH  14  16
ENDBRANCH  11  12
BRANCH  11  39
ATOM     39  CB  GLN A   8     -22.676  50.775  14.394  0.00  0.00    +0.039 C 
BRANCH  39  40
ATOM     40  CG  GLN A   8     -22.359  49.846  15.560  0.00  0.00    +0.087 C 
BRANCH  40  41
ATOM     41  CD  GLN A   8     -23.120  48.525  15.485  0.00  0.00    +0.219 C 
ATOM     42  OE1 GLN A   8     -24.341  48.481  15.672  0.00  0.00    -0.275 OA
ATOM     43  NE2 GLN A   8     -22.397  47.439  15.210  0.00  0.00    -0.329 N 
ATOM     44 HE21 GLN A   8     -22.859  46.509  15.146  0.00  0.00    +0.145 HD
ATOM     45 HE22 GLN A   8     -21.371  47.522  15.060  0.00  0.00    +0.145 HD
ENDBRANCH  40  41
ENDBRANCH  39  40
ENDBRANCH  11  39
ENDBRANCH   8  11
ENDBRANCH   6   7
BRANCH   6  46
ATOM     46  CB  CYS A   7     -22.488  55.719  12.441  0.00  0.00    +0.098 C 
ATOM     47  SG  CYS A   7     -23.050  57.146  11.499  0.00  0.00    -0.080 S 
ENDBRANCH   6  46
ENDBRANCH   3   6
ENDBRANCH   1   2
BRANCH   1  50
ATOM     48  C   GLU A   5     -24.406  51.174  10.819  0.00  0.00    +0.241 C 
ATOM     49  O   GLU A   5     -23.348  50.583  11.033  0.00  0.00    -0.273 OA
ATOM     50  N   LEU A   6     -24.553  52.078   9.861  0.00  0.00    -0.297 N 
ATOM     51  H   LEU A   6     -25.480  52.536   9.744  0.00  0.00    +0.150 HD
BRANCH  48  52
ATOM     52  CA  GLU A   5     -25.652  50.920  11.662  0.00  0.00    +0.149 C 
BRANCH  52  55
ATOM     53  C   TYR A   4     -25.853  53.184  12.501  0.00  0.00    +0.241 C 
ATOM     54  O   TYR A   4     -24.747  53.115  13.033  0.00  0.00    -0.273 OA
ATOM     55  N   GLU A   5     -26.386  52.170  11.834  0.00  0.00    -0.297 N 
ATOM     56  H   GLU A   5     -27.339  52.266  11.428  0.00  0.00    +0.150 HD
BRANCH  53  57
ATOM     57  CA  TYR A   4     -26.691  54.448  12.654  0.00  0.00    +0.153 C 
BRANCH  57  59
ATOM     58  C   MET A   3     -26.421  55.581  10.485  0.00  0.00    +0.241 C 
ATOM     59  N   TYR A   4     -27.195  55.189  11.494  0.00  0.00    -0.297 N 
ATOM     60  H   TYR A   4     -28.208  55.420  11.458  0.00  0.00    +0.150 HD
ATOM     61  O   MET A   3     -25.230  55.293  10.394  0.00  0.00    -0.273 OA
BRANCH  58  62
ATOM     62  CA  MET A   3     -27.109  56.405   9.398  0.00  0.00    +0.149 C 
BRANCH  62  64
ATOM     63  C   ALA A   2     -29.277  57.502   9.407  0.00  0.00    +0.241 C 
ATOM     64  N   MET A   3     -28.149  57.198  10.033  0.00  0.00    -0.297 N 
ATOM     65  H   MET A   3     -28.004  57.536  11.006  0.00  0.00    +0.150 HD
ATOM     66  O   ALA A   2     -29.553  57.080   8.282  0.00  0.00    -0.273 OA
BRANCH  63  67
ATOM     67  CA  ALA A   2     -30.242  58.396  10.187  0.00  0.00    +0.149 C 
ATOM     68  CB  ALA A   2     -31.388  58.861   9.283  0.00  0.00    +0.031 C 
BRANCH  67  70
ATOM     69  C   SER A   1     -28.773  60.351   9.937  0.00  0.00    +0.241 C 
ATOM     70  N   ALA A   2     -29.516  59.558  10.712  0.00  0.00    -0.297 N 
ATOM     71  H   ALA A   2     -29.583  59.772  11.728  0.00  0.00    +0.150 HD
ATOM     72  O   SER A   1     -28.641  60.178   8.725  0.00  0.00    -0.274 OA
BRANCH  69  73
ATOM     73  CA  SER A   1     -28.073  61.520  10.625  0.00  0.00    +0.174 C 
BRANCH  73  74
ATOM     74  N   SER A   1     -28.437  61.650  12.027  0.00  0.00    -0.236 NA
ATOM     75  H   SER A   1     -27.713  61.469  12.751  0.00  0.00    +0.142 HD
ENDBRANCH  73  74
BRANCH  73  76
ATOM     76  CB  SER A   1     -26.555  61.357  10.502  0.00  0.00    +0.163 C 
BRANCH  76  77
ATOM     77  OG  SER A   1     -26.110  60.208  11.200  0.00  0.00    -0.380 OA
ATOM     78  H   SER A   1     -26.344  60.294  12.158  0.00  0.00    +0.211 HD
ENDBRANCH  76  77
ENDBRANCH  73  76
ENDBRANCH  69  73
ENDBRANCH  67  70
ENDBRANCH  63  67
ENDBRANCH  62  64
BRANCH  62  79
ATOM     79  CB  MET A   3     -26.129  57.388   8.751  0.00  0.00    +0.041 C 
BRANCH  79  80
ATOM     80  CG  MET A   3     -25.100  56.815   7.823  0.00  0.00    +0.060 C 
BRANCH  80  81
ATOM     81  SD  MET A   3     -24.198  58.185   7.087  0.00  0.00    -0.139 S 
ATOM     82  CE  MET A   3     -22.781  58.287   8.143  0.00  0.00    +0.069 C 
ENDBRANCH  80  81
ENDBRANCH  79  80
ENDBRANCH  62  79
ENDBRANCH  58  62
ENDBRANCH  57  59
BRANCH  57  83
ATOM     83  CB  TYR A   4     -27.835  54.127  13.614  0.00  0.00    +0.055 C 
BRANCH  83  84
ATOM     84  CG  TYR A   4     -27.316  53.660  14.948  0.00  0.00    -0.020 A 
ATOM     85  CD2 TYR A   4     -26.888  54.587  15.892  0.00  0.00    -0.001 A 
ATOM     86  CE2 TYR A   4     -26.334  54.186  17.095  0.00  0.00    +0.036 A 
ATOM     87  CZ  TYR A   4     -26.204  52.832  17.379  0.00  0.00    +0.134 A 
ATOM     88  CE1 TYR A   4     -26.627  51.878  16.461  0.00  0.00    +0.036 A 
ATOM     89  CD1 TYR A   4     -27.184  52.299  15.245  0.00  0.00    -0.001 A 
BRANCH  87  90
ATOM     90  OH  TYR A   4     -25.633  52.453  18.572  0.00  0.00    -0.506 OA
ATOM     91  HH  TYR A   4     -24.710  52.808  18.622  0.00  0.00    +0.292 HD
ENDBRANCH  87  90
ENDBRANCH  83  84
ENDBRANCH  57  83
ENDBRANCH  53  57
ENDBRANCH  52  55
BRANCH  52  92
ATOM     92  CB  GLU A   5     -26.553  49.877  10.995  0.00  0.00    +0.041 C 
BRANCH  92  93
ATOM     93  CG  GLU A   5     -27.748  49.452  11.853  0.00  0.00    +0.116 C 
BRANCH  93  94
ATOM     94  CD  GLU A   5     -27.337  48.683  13.108  0.00  0.00    +0.365 C 
ATOM     95  OE2 GLU A   5     -28.221  48.364  13.941  0.00  0.00    -0.246 OA
ATOM     96  OE1 GLU A   5     -26.130  48.391  13.257  0.00  0.00    -0.246 OA
ENDBRANCH  93  94
ENDBRANCH  92  93
ENDBRANCH  52  92
ENDBRANCH  48  52
ENDBRANCH   1  50
BRANCH   1  97
ATOM     97  CB  LEU A   6     -24.025  53.367   7.879  0.00  0.00    +0.029 C 
BRANCH  97  98
ATOM     98  CG  LEU A   6     -23.550  53.145   6.444  0.00  0.00    +0.002 C 
ATOM     99  CD2 LEU A   6     -23.632  51.672   6.075  0.00  0.00    +0.000 C 
ATOM    100  CD1 LEU A   6     -24.406  53.989   5.506  0.00  0.00    +0.000 C 
ENDBRANCH  97  98
ENDBRANCH   1  97
TORSDOF 44
REMARK  Name = ../refined-set-2016/2oax/2oax_pocket.pdb
REMARK  278 active torsions:
REMARK  status: ('A' for Active; 'I' for Inactive)
REMARK    1  A    between atoms: _1  and  _3
REMARK    2  A    between atoms: _3  and  _4
REMARK    3  A    between atoms: _7  and  _9
REMARK    4  A    between atoms: _9  and  _10
REMARK    5  A    between atoms: _9  and  _12
REMARK    6  A    between atoms: _12  and  _13
REMARK    7  A    between atoms: _13  and  _14
REMARK    8  A    between atoms: _17  and  _19
REMARK    9  A    between atoms: _19  and  _20
REMARK   10  A    between atoms: _19  and  _22
REMARK   11  A    between atoms: _22  and  _23
REMARK   12  A    between atoms: _26  and  _28
REMARK   13  A    between atoms: _28  and  _29
REMARK   14  A    between atoms: _28  and  _31
REMARK   15  A    between atoms: _31  and  _32
REMARK   16  A    between atoms: _35  and  _37
REMARK   17  A    between atoms: _37  and  _38
REMARK   18  A    between atoms: _37  and  _40
REMARK   19  A    between atoms: _40  and  _41
REMARK   20  A    between atoms: _43  and  _45
REMARK   21  A    between atoms: _45  and  _46
REMARK   22  A    between atoms: _45  and  _48
REMARK   23  A    between atoms: _48  and  _49
REMARK   24  A    between atoms: _52  and  _54
REMARK   25  A    between atoms: _54  and  _55
REMARK   26  A    between atoms: _54  and  _57
REMARK   27  A    between atoms: _57  and  _58
REMARK   28  A    between atoms: _61  and  _63
REMARK   29  A    between atoms: _63  and  _64
REMARK   30  A    between atoms: _63  and  _66
REMARK   31  A    between atoms: _66  and  _67
REMARK   32  A    between atoms: _72  and  _74
REMARK   33  A    between atoms: _74  and  _75
REMARK   34  A    between atoms: _74  and  _77
REMARK   35  A    between atoms: _77  and  _78
REMARK   36  A    between atoms: _78  and  _79
REMARK   37  A    between atoms: _79  and  _80
REMARK   38  A    between atoms: _89  and  _91
REMARK   39  A    between atoms: _91  and  _92
REMARK   40  A    between atoms: _91  and  _94
REMARK   41  A    between atoms: _94  and  _95
REMARK   42  A    between atoms: _98  and  _100
REMARK   43  A    between atoms: _100  and  _101
REMARK   44  A    between atoms: _104  and  _106
REMARK   45  A    between atoms: _106  and  _107
REMARK   46  A    between atoms: _109  and  _111
REMARK   47  A    between atoms: _111  and  _112
REMARK   48  A    between atoms: _111  and  _114
REMARK   49  A    between atoms: _114  and  _115
REMARK   50  A    between atoms: _115  and  _116
REMARK   51  A    between atoms: _116  and  _117
REMARK   52  A    between atoms: _117  and  _118
REMARK   53  A    between atoms: _122  and  _124
REMARK   54  A    between atoms: _124  and  _125
REMARK   55  A    between atoms: _124  and  _127
REMARK   56  A    between atoms: _127  and  _128
REMARK   57  A    between atoms: _128  and  _129
REMARK   58  A    between atoms: _134  and  _136
REMARK   59  A    between atoms: _136  and  _137
REMARK   60  A    between atoms: _136  and  _139
REMARK   61  A    between atoms: _139  and  _140
REMARK   62  A    between atoms: _140  and  _141
REMARK   63  A    between atoms: _143  and  _145
REMARK   64  A    between atoms: _145  and  _146
REMARK   65  A    between atoms: _145  and  _148
REMARK   66  A    between atoms: _148  and  _149
REMARK   67  A    between atoms: _159  and  _161
REMARK   68  A    between atoms: _161  and  _162
REMARK   69  A    between atoms: _161  and  _164
REMARK   70  A    between atoms: _164  and  _165
REMARK   71  A    between atoms: _165  and  _166
REMARK   72  A    between atoms: _168  and  _170
REMARK   73  A    between atoms: _170  and  _171
REMARK   74  A    between atoms: _170  and  _173
REMARK   75  A    between atoms: _175  and  _177
REMARK   76  A    between atoms: _177  and  _178
REMARK   77  A    between atoms: _177  and  _180
REMARK   78  A    between atoms: _180  and  _181
REMARK   79  A    between atoms: _184  and  _186
REMARK   80  A    between atoms: _186  and  _187
REMARK   81  A    between atoms: _186  and  _189
REMARK   82  A    between atoms: _189  and  _190
REMARK   83  A    between atoms: _193  and  _195
REMARK   84  A    between atoms: _195  and  _196
REMARK   85  A    between atoms: _195  and  _198
REMARK   86  A    between atoms: _198  and  _199
REMARK   87  A    between atoms: _201  and  _203
REMARK   88  A    between atoms: _203  and  _204
REMARK   89  A    between atoms: _203  and  _206
REMARK   90  A    between atoms: _206  and  _207
REMARK   91  A    between atoms: _213  and  _215
REMARK   92  A    between atoms: _215  and  _216
REMARK   93  A    between atoms: _219  and  _221
REMARK   94  A    between atoms: _221  and  _222
REMARK   95  A    between atoms: _221  and  _224
REMARK   96  A    between atoms: _224  and  _225
REMARK   97  A    between atoms: _228  and  _230
REMARK   98  A    between atoms: _230  and  _231
REMARK   99  A    between atoms: _230  and  _233
REMARK  100  A    between atoms: _233  and  _234
REMARK  101  A    between atoms: _236  and  _238
REMARK  102  A    between atoms: _238  and  _239
REMARK  103  A    between atoms: _238  and  _241
REMARK  104  A    between atoms: _241  and  _242
REMARK  105  A    between atoms: _252  and  _254
REMARK  106  A    between atoms: _254  and  _255
REMARK  107  A    between atoms: _254  and  _257
REMARK  108  A    between atoms: _257  and  _258
REMARK  109  A    between atoms: _258  and  _259
REMARK  110  A    between atoms: _259  and  _260
REMARK  111  A    between atoms: _269  and  _271
REMARK  112  A    between atoms: _271  and  _272
REMARK  113  A    between atoms: _271  and  _274
REMARK  114  A    between atoms: _274  and  _275
REMARK  115  A    between atoms: _277  and  _279
REMARK  116  A    between atoms: _279  and  _280
REMARK  117  A    between atoms: _279  and  _282
REMARK  118  A    between atoms: _282  and  _283
REMARK  119  A    between atoms: _286  and  _288
REMARK  120  A    between atoms: _288  and  _289
REMARK  121  A    between atoms: _288  and  _291
REMARK  122  A    between atoms: _291  and  _292
REMARK  123  A    between atoms: _297  and  _298
REMARK  124  A    between atoms: _300  and  _302
REMARK  125  A    between atoms: _302  and  _303
REMARK  126  A    between atoms: _302  and  _305
REMARK  127  A    between atoms: _305  and  _306
REMARK  128  A    between atoms: _312  and  _314
REMARK  129  A    between atoms: _314  and  _315
REMARK  130  A    between atoms: _318  and  _320
REMARK  131  A    between atoms: _320  and  _321
REMARK  132  A    between atoms: _320  and  _323
REMARK  133  A    between atoms: _323  and  _324
REMARK  134  A    between atoms: _327  and  _329
REMARK  135  A    between atoms: _329  and  _330
REMARK  136  A    between atoms: _329  and  _332
REMARK  137  A    between atoms: _332  and  _333
REMARK  138  A    between atoms: _339  and  _341
REMARK  139  A    between atoms: _341  and  _342
REMARK  140  A    between atoms: _341  and  _344
REMARK  141  A    between atoms: _344  and  _345
REMARK  142  A    between atoms: _345  and  _346
REMARK  143  A    between atoms: _348  and  _350
REMARK  144  A    between atoms: _350  and  _351
REMARK  145  A    between atoms: _350  and  _353
REMARK  146  A    between atoms: _353  and  _354
REMARK  147  A    between atoms: _356  and  _358
REMARK  148  A    between atoms: _358  and  _359
REMARK  149  A    between atoms: _362  and  _364
REMARK  150  A    between atoms: _364  and  _365
REMARK  151  A    between atoms: _364  and  _367
REMARK  152  A    between atoms: _367  and  _368
REMARK  153  A    between atoms: _368  and  _369
REMARK  154  A    between atoms: _371  and  _373
REMARK  155  A    between atoms: _373  and  _374
REMARK  156  A    between atoms: _373  and  _376
REMARK  157  A    between atoms: _376  and  _377
REMARK  158  A    between atoms: _382  and  _383
REMARK  159  A    between atoms: _385  and  _387
REMARK  160  A    between atoms: _387  and  _388
REMARK  161  A    between atoms: _387  and  _390
REMARK  162  A    between atoms: _390  and  _391
REMARK  163  A    between atoms: _391  and  _392
REMARK  164  A    between atoms: _395  and  _397
REMARK  165  A    between atoms: _397  and  _398
REMARK  166  A    between atoms: _397  and  _400
REMARK  167  A    between atoms: _400  and  _401
REMARK  168  A    between atoms: _404  and  _406
REMARK  169  A    between atoms: _406  and  _407
REMARK  170  A    between atoms: _406  and  _409
REMARK  171  A    between atoms: _411  and  _413
REMARK  172  A    between atoms: _413  and  _414
REMARK  173  A    between atoms: _413  and  _416
REMARK  174  A    between atoms: _416  and  _417
REMARK  175  A    between atoms: _417  and  _418
REMARK  176  A    between atoms: _423  and  _425
REMARK  177  A    between atoms: _425  and  _426
REMARK  178  A    between atoms: _428  and  _430
REMARK  179  A    between atoms: _430  and  _431
REMARK  180  A    between atoms: _430  and  _433
REMARK  181  A    between atoms: _433  and  _434
REMARK  182  A    between atoms: _434  and  _435
REMARK  183  A    between atoms: _437  and  _439
REMARK  184  A    between atoms: _439  and  _440
REMARK  185  A    between atoms: _439  and  _442
REMARK  186  A    between atoms: _442  and  _443
REMARK  187  A    between atoms: _448  and  _450
REMARK  188  A    between atoms: _450  and  _451
REMARK  189  A    between atoms: _450  and  _453
REMARK  190  A    between atoms: _453  and  _454
REMARK  191  A    between atoms: _454  and  _455
REMARK  192  A    between atoms: _457  and  _459
REMARK  193  A    between atoms: _459  and  _460
REMARK  194  A    between atoms: _459  and  _462
REMARK  195  A    between atoms: _462  and  _463
REMARK  196  A    between atoms: _466  and  _468
REMARK  197  A    between atoms: _468  and  _469
REMARK  198  A    between atoms: _468  and  _471
REMARK  199  A    between atoms: _474  and  _476
REMARK  200  A    between atoms: _476  and  _477
REMARK  201  A    between atoms: _476  and  _479
REMARK  202  A    between atoms: _479  and  _480
REMARK  203  A    between atoms: _483  and  _485
REMARK  204  A    between atoms: _485  and  _486
REMARK  205  A    between atoms: _485  and  _488
REMARK  206  A    between atoms: _488  and  _489
REMARK  207  A    between atoms: _492  and  _494
REMARK  208  A    between atoms: _494  and  _495
REMARK  209  A    between atoms: _494  and  _497
REMARK  210  A    between atoms: _497  and  _498
REMARK  211  A    between atoms: _501  and  _503
REMARK  212  A    between atoms: _503  and  _504
REMARK  213  A    between atoms: _503  and  _506
REMARK  214  A    between atoms: _506  and  _507
REMARK  215  A    between atoms: _507  and  _508
REMARK  216  A    between atoms: _511  and  _513
REMARK  217  A    between atoms: _513  and  _514
REMARK  218  A    between atoms: _513  and  _516
REMARK  219  A    between atoms: _516  and  _517
REMARK  220  A    between atoms: _523  and  _525
REMARK  221  A    between atoms: _525  and  _526
REMARK  222  A    between atoms: _525  and  _528
REMARK  223  A    between atoms: _530  and  _532
REMARK  224  A    between atoms: _532  and  _533
REMARK  225  A    between atoms: _532  and  _535
REMARK  226  A    between atoms: _535  and  _536
REMARK  227  A    between atoms: _542  and  _544
REMARK  228  A    between atoms: _544  and  _545
REMARK  229  A    between atoms: _544  and  _547
REMARK  230  A    between atoms: _547  and  _548
REMARK  231  A    between atoms: _553  and  _554
REMARK  232  A    between atoms: _556  and  _558
REMARK  233  A    between atoms: _558  and  _559
REMARK  234  A    between atoms: _558  and  _561
REMARK  235  A    between atoms: _561  and  _562
REMARK  236  A    between atoms: _565  and  _567
REMARK  237  A    between atoms: _567  and  _568
REMARK  238  A    between atoms: _567  and  _570
REMARK  239  A    between atoms: _570  and  _571
REMARK  240  A    between atoms: _577  and  _579
REMARK  241  A    between atoms: _579  and  _580
REMARK  242  A    between atoms: _579  and  _582
REMARK  243  A    between atoms: _582  and  _583
REMARK  244  A    between atoms: _583  and  _584
REMARK  245  A    between atoms: _584  and  _585
REMARK  246  A    between atoms: _594  and  _596
REMARK  247  A    between atoms: _596  and  _597
REMARK  248  A    between atoms: _596  and  _599
REMARK  249  A    between atoms: _599  and  _600
REMARK  250  A    between atoms: _600  and  _601
REMARK  251  A    between atoms: _604  and  _606
REMARK  252  A    between atoms: _606  and  _607
REMARK  253  A    between atoms: _606  and  _609
REMARK  254  A    between atoms: _609  and  _610
REMARK  255  A    between atoms: _612  and  _614
REMARK  256  A    between atoms: _614  and  _615
REMARK  257  A    between atoms: _614  and  _617
REMARK  258  A    between atoms: _617  and  _618
REMARK  259  A    between atoms: _621  and  _623
REMARK  260  A    between atoms: _623  and  _624
REMARK  261  A    between atoms: _623  and  _626
REMARK  262  A    between atoms: _629  and  _631
REMARK  263  A    between atoms: _631  and  _632
REMARK  264  A    between atoms: _631  and  _634
REMARK  265  A    between atoms: _634  and  _635
REMARK  266  A    between atoms: _635  and  _636
REMARK  267  A    between atoms: _639  and  _641
REMARK  268  A    between atoms: _641  and  _642
REMARK  269  A    between atoms: _641  and  _644
REMARK  270  A    between atoms: _644  and  _645
REMARK  271  A    between atoms: _651  and  _653
REMARK  272  A    between atoms: _653  and  _654
REMARK  273  A    between atoms: _653  and  _656
REMARK  274  A    between atoms: _656  and  _657
REMARK  275  A    between atoms: _660  and  _662
REMARK  276  A    between atoms: _662  and  _663
REMARK  277  A    between atoms: _662  and  _665
REMARK  278  A    between atoms: _665  and  _666
REMARK                            x       y       z     vdW  Elec       q    Type
REMARK                         _______ _______ _______ _____ _____    ______ ____
ROOT
ATOM      1  CA  MET A   1     -12.768  47.923   4.290  0.00  0.00    +0.134 C 
ENDROOT
BRANCH   1   2
ATOM      2  N   MET A   1     -12.364  46.545   4.601  0.00  0.00    -0.239 NA
ATOM      3  H   MET A   1     -11.359  46.288   4.526  0.00  0.00    +0.142 HD
ENDBRANCH   1   2
BRANCH   1   4
ATOM      4  C   MET A   1     -13.690  47.920   3.071  0.00  0.00    +0.224 C 
ATOM      5  O   MET A   1     -14.654  48.677   3.010  0.00  0.00    -0.287 OA
ENDBRANCH   1   4
BRANCH   1   6
ATOM      6  CB  MET A   1     -11.544  48.805   3.979  0.00  0.00    +0.037 C 
BRANCH   6   7
ATOM      7  CG  MET A   1     -10.806  49.368   5.195  0.00  0.00    +0.059 C 
BRANCH   7   8
ATOM      8  SD  MET A   1     -11.851  50.408   6.252  0.00  0.00    -0.139 S 
ATOM      9  CE  MET A   1     -12.511  51.626   5.071  0.00  0.00    +0.069 C 
ENDBRANCH   7   8
ENDBRANCH   6   7
ENDBRANCH   1   6
TORSDOF 5
REMARK  Name = ../refined-set-2016/2oax/2oax_pocket.pdb
REMARK  278 active torsions:
REMARK  status: ('A' for Active; 'I' for Inactive)
REMARK    1  A    between atoms: _1  and  _3
REMARK    2  A    between atoms: _3  and  _4
REMARK    3  A    between atoms: _7  and  _9
REMARK    4  A    between atoms: _9  and  _10
REMARK    5  A    between atoms: _9  and  _12
REMARK    6  A    between atoms: _12  and  _13
REMARK    7  A    between atoms: _13  and  _14
REMARK    8  A    between atoms: _17  and  _19
REMARK    9  A    between atoms: _19  and  _20
REMARK   10  A    between atoms: _19  and  _22
REMARK   11  A    between atoms: _22  and  _23
REMARK   12  A    between atoms: _26  and  _28
REMARK   13  A    between atoms: _28  and  _29
REMARK   14  A    between atoms: _28  and  _31
REMARK   15  A    between atoms: _31  and  _32
REMARK   16  A    between atoms: _35  and  _37
REMARK   17  A    between atoms: _37  and  _38
REMARK   18  A    between atoms: _37  and  _40
REMARK   19  A    between atoms: _40  and  _41
REMARK   20  A    between atoms: _43  and  _45
REMARK   21  A    between atoms: _45  and  _46
REMARK   22  A    between atoms: _45  and  _48
REMARK   23  A    between atoms: _48  and  _49
REMARK   24  A    between atoms: _52  and  _54
REMARK   25  A    between atoms: _54  and  _55
REMARK   26  A    between atoms: _54  and  _57
REMARK   27  A    between atoms: _57  and  _58
REMARK   28  A    between atoms: _61  and  _63
REMARK   29  A    between atoms: _63  and  _64
REMARK   30  A    between atoms: _63  and  _66
REMARK   31  A    between atoms: _66  and  _67
REMARK   32  A    between atoms: _72  and  _74
REMARK   33  A    between atoms: _74  and  _75
REMARK   34  A    between atoms: _74  and  _77
REMARK   35  A    between atoms: _77  and  _78
REMARK   36  A    between atoms: _78  and  _79
REMARK   37  A    between atoms: _79  and  _80
REMARK   38  A    between atoms: _89  and  _91
REMARK   39  A    between atoms: _91  and  _92
REMARK   40  A    between atoms: _91  and  _94
REMARK   41  A    between atoms: _94  and  _95
REMARK   42  A    between atoms: _98  and  _100
REMARK   43  A    between atoms: _100  and  _101
REMARK   44  A    between atoms: _104  and  _106
REMARK   45  A    between atoms: _106  and  _107
REMARK   46  A    between atoms: _109  and  _111
REMARK   47  A    between atoms: _111  and  _112
REMARK   48  A    between atoms: _111  and  _114
REMARK   49  A    between atoms: _114  and  _115
REMARK   50  A    between atoms: _115  and  _116
REMARK   51  A    between atoms: _116  and  _117
REMARK   52  A    between atoms: _117  and  _118
REMARK   53  A    between atoms: _122  and  _124
REMARK   54  A    between atoms: _124  and  _125
REMARK   55  A    between atoms: _124  and  _127
REMARK   56  A    between atoms: _127  and  _128
REMARK   57  A    between atoms: _128  and  _129
REMARK   58  A    between atoms: _134  and  _136
REMARK   59  A    between atoms: _136  and  _137
REMARK   60  A    between atoms: _136  and  _139
REMARK   61  A    between atoms: _139  and  _140
REMARK   62  A    between atoms: _140  and  _141
REMARK   63  A    between atoms: _143  and  _145
REMARK   64  A    between atoms: _145  and  _146
REMARK   65  A    between atoms: _145  and  _148
REMARK   66  A    between atoms: _148  and  _149
REMARK   67  A    between atoms: _159  and  _161
REMARK   68  A    between atoms: _161  and  _162
REMARK   69  A    between atoms: _161  and  _164
REMARK   70  A    between atoms: _164  and  _165
REMARK   71  A    between atoms: _165  and  _166
REMARK   72  A    between atoms: _168  and  _170
REMARK   73  A    between atoms: _170  and  _171
REMARK   74  A    between atoms: _170  and  _173
REMARK   75  A    between atoms: _175  and  _177
REMARK   76  A    between atoms: _177  and  _178
REMARK   77  A    between atoms: _177  and  _180
REMARK   78  A    between atoms: _180  and  _181
REMARK   79  A    between atoms: _184  and  _186
REMARK   80  A    between atoms: _186  and  _187
REMARK   81  A    between atoms: _186  and  _189
REMARK   82  A    between atoms: _189  and  _190
REMARK   83  A    between atoms: _193  and  _195
REMARK   84  A    between atoms: _195  and  _196
REMARK   85  A    between atoms: _195  and  _198
REMARK   86  A    between atoms: _198  and  _199
REMARK   87  A    between atoms: _201  and  _203
REMARK   88  A    between atoms: _203  and  _204
REMARK   89  A    between atoms: _203  and  _206
REMARK   90  A    between atoms: _206  and  _207
REMARK   91  A    between atoms: _213  and  _215
REMARK   92  A    between atoms: _215  and  _216
REMARK   93  A    between atoms: _219  and  _221
REMARK   94  A    between atoms: _221  and  _222
REMARK   95  A    between atoms: _221  and  _224
REMARK   96  A    between atoms: _224  and  _225
REMARK   97  A    between atoms: _228  and  _230
REMARK   98  A    between atoms: _230  and  _231
REMARK   99  A    between atoms: _230  and  _233
REMARK  100  A    between atoms: _233  and  _234
REMARK  101  A    between atoms: _236  and  _238
REMARK  102  A    between atoms: _238  and  _239
REMARK  103  A    between atoms: _238  and  _241
REMARK  104  A    between atoms: _241  and  _242
REMARK  105  A    between atoms: _252  and  _254
REMARK  106  A    between atoms: _254  and  _255
REMARK  107  A    between atoms: _254  and  _257
REMARK  108  A    between atoms: _257  and  _258
REMARK  109  A    between atoms: _258  and  _259
REMARK  110  A    between atoms: _259  and  _260
REMARK  111  A    between atoms: _269  and  _271
REMARK  112  A    between atoms: _271  and  _272
REMARK  113  A    between atoms: _271  and  _274
REMARK  114  A    between atoms: _274  and  _275
REMARK  115  A    between atoms: _277  and  _279
REMARK  116  A    between atoms: _279  and  _280
REMARK  117  A    between atoms: _279  and  _282
REMARK  118  A    between atoms: _282  and  _283
REMARK  119  A    between atoms: _286  and  _288
REMARK  120  A    between atoms: _288  and  _289
REMARK  121  A    between atoms: _288  and  _291
REMARK  122  A    between atoms: _291  and  _292
REMARK  123  A    between atoms: _297  and  _298
REMARK  124  A    between atoms: _300  and  _302
REMARK  125  A    between atoms: _302  and  _303
REMARK  126  A    between atoms: _302  and  _305
REMARK  127  A    between atoms: _305  and  _306
REMARK  128  A    between atoms: _312  and  _314
REMARK  129  A    between atoms: _314  and  _315
REMARK  130  A    between atoms: _318  and  _320
REMARK  131  A    between atoms: _320  and  _321
REMARK  132  A    between atoms: _320  and  _323
REMARK  133  A    between atoms: _323  and  _324
REMARK  134  A    between atoms: _327  and  _329
REMARK  135  A    between atoms: _329  and  _330
REMARK  136  A    between atoms: _329  and  _332
REMARK  137  A    between atoms: _332  and  _333
REMARK  138  A    between atoms: _339  and  _341
REMARK  139  A    between atoms: _341  and  _342
REMARK  140  A    between atoms: _341  and  _344
REMARK  141  A    between atoms: _344  and  _345
REMARK  142  A    between atoms: _345  and  _346
REMARK  143  A    between atoms: _348  and  _350
REMARK  144  A    between atoms: _350  and  _351
REMARK  145  A    between atoms: _350  and  _353
REMARK  146  A    between atoms: _353  and  _354
REMARK  147  A    between atoms: _356  and  _358
REMARK  148  A    between atoms: _358  and  _359
REMARK  149  A    between atoms: _362  and  _364
REMARK  150  A    between atoms: _364  and  _365
REMARK  151  A    between atoms: _364  and  _367
REMARK  152  A    between atoms: _367  and  _368
REMARK  153  A    between atoms: _368  and  _369
REMARK  154  A    between atoms: _371  and  _373
REMARK  155  A    between atoms: _373  and  _374
REMARK  156  A    between atoms: _373  and  _376
REMARK  157  A    between atoms: _376  and  _377
REMARK  158  A    between atoms: _382  and  _383
REMARK  159  A    between atoms: _385  and  _387
REMARK  160  A    between atoms: _387  and  _388
REMARK  161  A    between atoms: _387  and  _390
REMARK  162  A    between atoms: _390  and  _391
REMARK  163  A    between atoms: _391  and  _392
REMARK  164  A    between atoms: _395  and  _397
REMARK  165  A    between atoms: _397  and  _398
REMARK  166  A    between atoms: _397  and  _400
REMARK  167  A    between atoms: _400  and  _401
REMARK  168  A    between atoms: _404  and  _406
REMARK  169  A    between atoms: _406  and  _407
REMARK  170  A    between atoms: _406  and  _409
REMARK  171  A    between atoms: _411  and  _413
REMARK  172  A    between atoms: _413  and  _414
REMARK  173  A    between atoms: _413  and  _416
REMARK  174  A    between atoms: _416  and  _417
REMARK  175  A    between atoms: _417  and  _418
REMARK  176  A    between atoms: _423  and  _425
REMARK  177  A    between atoms: _425  and  _426
REMARK  178  A    between atoms: _428  and  _430
REMARK  179  A    between atoms: _430  and  _431
REMARK  180  A    between atoms: _430  and  _433
REMARK  181  A    between atoms: _433  and  _434
REMARK  182  A    between atoms: _434  and  _435
REMARK  183  A    between atoms: _437  and  _439
REMARK  184  A    between atoms: _439  and  _440
REMARK  185  A    between atoms: _439  and  _442
REMARK  186  A    between atoms: _442  and  _443
REMARK  187  A    between atoms: _448  and  _450
REMARK  188  A    between atoms: _450  and  _451
REMARK  189  A    between atoms: _450  and  _453
REMARK  190  A    between atoms: _453  and  _454
REMARK  191  A    between atoms: _454  and  _455
REMARK  192  A    between atoms: _457  and  _459
REMARK  193  A    between atoms: _459  and  _460
REMARK  194  A    between atoms: _459  and  _462
REMARK  195  A    between atoms: _462  and  _463
REMARK  196  A    between atoms: _466  and  _468
REMARK  197  A    between atoms: _468  and  _469
REMARK  198  A    between atoms: _468  and  _471
REMARK  199  A    between atoms: _474  and  _476
REMARK  200  A    between atoms: _476  and  _477
REMARK  201  A    between atoms: _476  and  _479
REMARK  202  A    between atoms: _479  and  _480
REMARK  203  A    between atoms: _483  and  _485
REMARK  204  A    between atoms: _485  and  _486
REMARK  205  A    between atoms: _485  and  _488
REMARK  206  A    between atoms: _488  and  _489
REMARK  207  A    between atoms: _492  and  _494
REMARK  208  A    between atoms: _494  and  _495
REMARK  209  A    between atoms: _494  and  _497
REMARK  210  A    between atoms: _497  and  _498
REMARK  211  A    between atoms: _501  and  _503
REMARK  212  A    between atoms: _503  and  _504
REMARK  213  A    between atoms: _503  and  _506
REMARK  214  A    between atoms: _506  and  _507
REMARK  215  A    between atoms: _507  and  _508
REMARK  216  A    between atoms: _511  and  _513
REMARK  217  A    between atoms: _513  and  _514
REMARK  218  A    between atoms: _513  and  _516
REMARK  219  A    between atoms: _516  and  _517
REMARK  220  A    between atoms: _523  and  _525
REMARK  221  A    between atoms: _525  and  _526
REMARK  222  A    between atoms: _525  and  _528
REMARK  223  A    between atoms: _530  and  _532
REMARK  224  A    between atoms: _532  and  _533
REMARK  225  A    between atoms: _532  and  _535
REMARK  226  A    between atoms: _535  and  _536
REMARK  227  A    between atoms: _542  and  _544
REMARK  228  A    between atoms: _544  and  _545
REMARK  229  A    between atoms: _544  and  _547
REMARK  230  A    between atoms: _547  and  _548
REMARK  231  A    between atoms: _553  and  _554
REMARK  232  A    between atoms: _556  and  _558
REMARK  233  A    between atoms: _558  and  _559
REMARK  234  A    between atoms: _558  and  _561
REMARK  235  A    between atoms: _561  and  _562
REMARK  236  A    between atoms: _565  and  _567
REMARK  237  A    between atoms: _567  and  _568
REMARK  238  A    between atoms: _567  and  _570
REMARK  239  A    between atoms: _570  and  _571
REMARK  240  A    between atoms: _577  and  _579
REMARK  241  A    between atoms: _579  and  _580
REMARK  242  A    between atoms: _579  and  _582
REMARK  243  A    between atoms: _582  and  _583
REMARK  244  A    between atoms: _583  and  _584
REMARK  245  A    between atoms: _584  and  _585
REMARK  246  A    between atoms: _594  and  _596
REMARK  247  A    between atoms: _596  and  _597
REMARK  248  A    between atoms: _596  and  _599
REMARK  249  A    between atoms: _599  and  _600
REMARK  250  A    between atoms: _600  and  _601
REMARK  251  A    between atoms: _604  and  _606
REMARK  252  A    between atoms: _606  and  _607
REMARK  253  A    between atoms: _606  and  _609
REMARK  254  A    between atoms: _609  and  _610
REMARK  255  A    between atoms: _612  and  _614
REMARK  256  A    between atoms: _614  and  _615
REMARK  257  A    between atoms: _614  and  _617
REMARK  258  A    between atoms: _617  and  _618
REMARK  259  A    between atoms: _621  and  _623
REMARK  260  A    between atoms: _623  and  _624
REMARK  261  A    between atoms: _623  and  _626
REMARK  262  A    between atoms: _629  and  _631
REMARK  263  A    between atoms: _631  and  _632
REMARK  264  A    between atoms: _631  and  _634
REMARK  265  A    between atoms: _634  and  _635
REMARK  266  A    between atoms: _635  and  _636
REMARK  267  A    between atoms: _639  and  _641
REMARK  268  A    between atoms: _641  and  _642
REMARK  269  A    between atoms: _641  and  _644
REMARK  270  A    between atoms: _644  and  _645
REMARK  271  A    between atoms: _651  and  _653
REMARK  272  A    between atoms: _653  and  _654
REMARK  273  A    between atoms: _653  and  _656
REMARK  274  A    between atoms: _656  and  _657
REMARK  275  A    between atoms: _660  and  _662
REMARK  276  A    between atoms: _662  and  _663
REMARK  277  A    between atoms: _662  and  _665
REMARK  278  A    between atoms: _665  and  _666
REMARK                            x       y       z     vdW  Elec       q    Type
REMARK                         _______ _______ _______ _____ _____    ______ ____
ROOT
ATOM      1  C   LEU A   1     -18.352  49.474   3.392  0.00  0.00    +0.238 C 
ATOM      2  O   LEU A   1     -19.432  50.038   3.267  0.00  0.00    -0.274 OA
ATOM      3  N   VAL A   2     -17.308  49.754   2.620  0.00  0.00    -0.298 N 
ATOM      4  H   VAL A   2     -16.413  49.245   2.764  0.00  0.00    +0.150 HD
ENDROOT
BRANCH   1   5
ATOM      5  CA  LEU A   1     -18.149  48.405   4.468  0.00  0.00    +0.145 C 
BRANCH   5   6
ATOM      6  N   LEU A   1     -17.454  47.253   3.914  0.00  0.00    -0.238 NA
ATOM      7  H   LEU A   1     -16.463  47.091   4.183  0.00  0.00    +0.142 HD
ENDBRANCH   5   6
BRANCH   5   8
ATOM      8  CB  LEU A   1     -17.378  48.973   5.661  0.00  0.00    +0.026 C 
BRANCH   8   9
ATOM      9  CG  LEU A   1     -18.101  50.035   6.492  0.00  0.00    +0.002 C 
ATOM     10  CD2 LEU A   1     -17.130  50.736   7.430  0.00  0.00    +0.000 C 
ATOM     11  CD1 LEU A   1     -19.249  49.417   7.274  0.00  0.00    +0.000 C 
ENDBRANCH   8   9
ENDBRANCH   5   8
ENDBRANCH   1   5
BRANCH   3  12
ATOM     12  CA  VAL A   2     -17.400  50.761   1.578  0.00  0.00    +0.137 C 
BRANCH  12  13
ATOM     13  CB  VAL A   2     -16.079  50.861   0.792  0.00  0.00    +0.026 C 
ATOM     14  CG2 VAL A   2     -14.994  51.442   1.695  0.00  0.00    +0.002 C 
ATOM     15  CG1 VAL A   2     -16.261  51.740  -0.429  0.00  0.00    +0.002 C 
ENDBRANCH  12  13
BRANCH  12  16
ATOM     16  C   VAL A   2     -18.556  50.475   0.625  0.00  0.00    +0.227 C 
ATOM     17  O   VAL A   2     -19.243  51.397   0.196  0.00  0.00    -0.286 OA
ENDBRANCH  12  16
ENDBRANCH   3  12
TORSDOF 7
REMARK  Name = ../refined-set-2016/2oax/2oax_pocket.pdb
REMARK  278 active torsions:
REMARK  status: ('A' for Active; 'I' for Inactive)
REMARK    1  A    between atoms: _1  and  _3
REMARK    2  A    between atoms: _3  and  _4
REMARK    3  A    between atoms: _7  and  _9
REMARK    4  A    between atoms: _9  and  _10
REMARK    5  A    between atoms: _9  and  _12
REMARK    6  A    between atoms: _12  and  _13
REMARK    7  A    between atoms: _13  and  _14
REMARK    8  A    between atoms: _17  and  _19
REMARK    9  A    between atoms: _19  and  _20
REMARK   10  A    between atoms: _19  and  _22
REMARK   11  A    between atoms: _22  and  _23
REMARK   12  A    between atoms: _26  and  _28
REMARK   13  A    between atoms: _28  and  _29
REMARK   14  A    between atoms: _28  and  _31
REMARK   15  A    between atoms: _31  and  _32
REMARK   16  A    between atoms: _35  and  _37
REMARK   17  A    between atoms: _37  and  _38
REMARK   18  A    between atoms: _37  and  _40
REMARK   19  A    between atoms: _40  and  _41
REMARK   20  A    between atoms: _43  and  _45
REMARK   21  A    between atoms: _45  and  _46
REMARK   22  A    between atoms: _45  and  _48
REMARK   23  A    between atoms: _48  and  _49
REMARK   24  A    between atoms: _52  and  _54
REMARK   25  A    between atoms: _54  and  _55
REMARK   26  A    between atoms: _54  and  _57
REMARK   27  A    between atoms: _57  and  _58
REMARK   28  A    between atoms: _61  and  _63
REMARK   29  A    between atoms: _63  and  _64
REMARK   30  A    between atoms: _63  and  _66
REMARK   31  A    between atoms: _66  and  _67
REMARK   32  A    between atoms: _72  and  _74
REMARK   33  A    between atoms: _74  and  _75
REMARK   34  A    between atoms: _74  and  _77
REMARK   35  A    between atoms: _77  and  _78
REMARK   36  A    between atoms: _78  and  _79
REMARK   37  A    between atoms: _79  and  _80
REMARK   38  A    between atoms: _89  and  _91
REMARK   39  A    between atoms: _91  and  _92
REMARK   40  A    between atoms: _91  and  _94
REMARK   41  A    between atoms: _94  and  _95
REMARK   42  A    between atoms: _98  and  _100
REMARK   43  A    between atoms: _100  and  _101
REMARK   44  A    between atoms: _104  and  _106
REMARK   45  A    between atoms: _106  and  _107
REMARK   46  A    between atoms: _109  and  _111
REMARK   47  A    between atoms: _111  and  _112
REMARK   48  A    between atoms: _111  and  _114
REMARK   49  A    between atoms: _114  and  _115
REMARK   50  A    between atoms: _115  and  _116
REMARK   51  A    between atoms: _116  and  _117
REMARK   52  A    between atoms: _117  and  _118
REMARK   53  A    between atoms: _122  and  _124
REMARK   54  A    between atoms: _124  and  _125
REMARK   55  A    between atoms: _124  and  _127
REMARK   56  A    between atoms: _127  and  _128
REMARK   57  A    between atoms: _128  and  _129
REMARK   58  A    between atoms: _134  and  _136
REMARK   59  A    between atoms: _136  and  _137
REMARK   60  A    between atoms: _136  and  _139
REMARK   61  A    between atoms: _139  and  _140
REMARK   62  A    between atoms: _140  and  _141
REMARK   63  A    between atoms: _143  and  _145
REMARK   64  A    between atoms: _145  and  _146
REMARK   65  A    between atoms: _145  and  _148
REMARK   66  A    between atoms: _148  and  _149
REMARK   67  A    between atoms: _159  and  _161
REMARK   68  A    between atoms: _161  and  _162
REMARK   69  A    between atoms: _161  and  _164
REMARK   70  A    between atoms: _164  and  _165
REMARK   71  A    between atoms: _165  and  _166
REMARK   72  A    between atoms: _168  and  _170
REMARK   73  A    between atoms: _170  and  _171
REMARK   74  A    between atoms: _170  and  _173
REMARK   75  A    between atoms: _175  and  _177
REMARK   76  A    between atoms: _177  and  _178
REMARK   77  A    between atoms: _177  and  _180
REMARK   78  A    between atoms: _180  and  _181
REMARK   79  A    between atoms: _184  and  _186
REMARK   80  A    between atoms: _186  and  _187
REMARK   81  A    between atoms: _186  and  _189
REMARK   82  A    between atoms: _189  and  _190
REMARK   83  A    between atoms: _193  and  _195
REMARK   84  A    between atoms: _195  and  _196
REMARK   85  A    between atoms: _195  and  _198
REMARK   86  A    between atoms: _198  and  _199
REMARK   87  A    between atoms: _201  and  _203
REMARK   88  A    between atoms: _203  and  _204
REMARK   89  A    between atoms: _203  and  _206
REMARK   90  A    between atoms: _206  and  _207
REMARK   91  A    between atoms: _213  and  _215
REMARK   92  A    between atoms: _215  and  _216
REMARK   93  A    between atoms: _219  and  _221
REMARK   94  A    between atoms: _221  and  _222
REMARK   95  A    between atoms: _221  and  _224
REMARK   96  A    between atoms: _224  and  _225
REMARK   97  A    between atoms: _228  and  _230
REMARK   98  A    between atoms: _230  and  _231
REMARK   99  A    between atoms: _230  and  _233
REMARK  100  A    between atoms: _233  and  _234
REMARK  101  A    between atoms: _236  and  _238
REMARK  102  A    between atoms: _238  and  _239
REMARK  103  A    between atoms: _238  and  _241
REMARK  104  A    between atoms: _241  and  _242
REMARK  105  A    between atoms: _252  and  _254
REMARK  106  A    between atoms: _254  and  _255
REMARK  107  A    between atoms: _254  and  _257
REMARK  108  A    between atoms: _257  and  _258
REMARK  109  A    between atoms: _258  and  _259
REMARK  110  A    between atoms: _259  and  _260
REMARK  111  A    between atoms: _269  and  _271
REMARK  112  A    between atoms: _271  and  _272
REMARK  113  A    between atoms: _271  and  _274
REMARK  114  A    between atoms: _274  and  _275
REMARK  115  A    between atoms: _277  and  _279
REMARK  116  A    between atoms: _279  and  _280
REMARK  117  A    between atoms: _279  and  _282
REMARK  118  A    between atoms: _282  and  _283
REMARK  119  A    between atoms: _286  and  _288
REMARK  120  A    between atoms: _288  and  _289
REMARK  121  A    between atoms: _288  and  _291
REMARK  122  A    between atoms: _291  and  _292
REMARK  123  A    between atoms: _297  and  _298
REMARK  124  A    between atoms: _300  and  _302
REMARK  125  A    between atoms: _302  and  _303
REMARK  126  A    between atoms: _302  and  _305
REMARK  127  A    between atoms: _305  and  _306
REMARK  128  A    between atoms: _312  and  _314
REMARK  129  A    between atoms: _314  and  _315
REMARK  130  A    between atoms: _318  and  _320
REMARK  131  A    between atoms: _320  and  _321
REMARK  132  A    between atoms: _320  and  _323
REMARK  133  A    between atoms: _323  and  _324
REMARK  134  A    between atoms: _327  and  _329
REMARK  135  A    between atoms: _329  and  _330
REMARK  136  A    between atoms: _329  and  _332
REMARK  137  A    between atoms: _332  and  _333
REMARK  138  A    between atoms: _339  and  _341
REMARK  139  A    between atoms: _341  and  _342
REMARK  140  A    between atoms: _341  and  _344
REMARK  141  A    between atoms: _344  and  _345
REMARK  142  A    between atoms: _345  and  _346
REMARK  143  A    between atoms: _348  and  _350
REMARK  144  A    between atoms: _350  and  _351
REMARK  145  A    between atoms: _350  and  _353
REMARK  146  A    between atoms: _353  and  _354
REMARK  147  A    between atoms: _356  and  _358
REMARK  148  A    between atoms: _358  and  _359
REMARK  149  A    between atoms: _362  and  _364
REMARK  150  A    between atoms: _364  and  _365
REMARK  151  A    between atoms: _364  and  _367
REMARK  152  A    between atoms: _367  and  _368
REMARK  153  A    between atoms: _368  and  _369
REMARK  154  A    between atoms: _371  and  _373
REMARK  155  A    between atoms: _373  and  _374
REMARK  156  A    between atoms: _373  and  _376
REMARK  157  A    between atoms: _376  and  _377
REMARK  158  A    between atoms: _382  and  _383
REMARK  159  A    between atoms: _385  and  _387
REMARK  160  A    between atoms: _387  and  _388
REMARK  161  A    between atoms: _387  and  _390
REMARK  162  A    between atoms: _390  and  _391
REMARK  163  A    between atoms: _391  and  _392
REMARK  164  A    between atoms: _395  and  _397
REMARK  165  A    between atoms: _397  and  _398
REMARK  166  A    between atoms: _397  and  _400
REMARK  167  A    between atoms: _400  and  _401
REMARK  168  A    between atoms: _404  and  _406
REMARK  169  A    between atoms: _406  and  _407
REMARK  170  A    between atoms: _406  and  _409
REMARK  171  A    between atoms: _411  and  _413
REMARK  172  A    between atoms: _413  and  _414
REMARK  173  A    between atoms: _413  and  _416
REMARK  174  A    between atoms: _416  and  _417
REMARK  175  A    between atoms: _417  and  _418
REMARK  176  A    between atoms: _423  and  _425
REMARK  177  A    between atoms: _425  and  _426
REMARK  178  A    between atoms: _428  and  _430
REMARK  179  A    between atoms: _430  and  _431
REMARK  180  A    between atoms: _430  and  _433
REMARK  181  A    between atoms: _433  and  _434
REMARK  182  A    between atoms: _434  and  _435
REMARK  183  A    between atoms: _437  and  _439
REMARK  184  A    between atoms: _439  and  _440
REMARK  185  A    between atoms: _439  and  _442
REMARK  186  A    between atoms: _442  and  _443
REMARK  187  A    between atoms: _448  and  _450
REMARK  188  A    between atoms: _450  and  _451
REMARK  189  A    between atoms: _450  and  _453
REMARK  190  A    between atoms: _453  and  _454
REMARK  191  A    between atoms: _454  and  _455
REMARK  192  A    between atoms: _457  and  _459
REMARK  193  A    between atoms: _459  and  _460
REMARK  194  A    between atoms: _459  and  _462
REMARK  195  A    between atoms: _462  and  _463
REMARK  196  A    between atoms: _466  and  _468
REMARK  197  A    between atoms: _468  and  _469
REMARK  198  A    between atoms: _468  and  _471
REMARK  199  A    between atoms: _474  and  _476
REMARK  200  A    between atoms: _476  and  _477
REMARK  201  A    between atoms: _476  and  _479
REMARK  202  A    between atoms: _479  and  _480
REMARK  203  A    between atoms: _483  and  _485
REMARK  204  A    between atoms: _485  and  _486
REMARK  205  A    between atoms: _485  and  _488
REMARK  206  A    between atoms: _488  and  _489
REMARK  207  A    between atoms: _492  and  _494
REMARK  208  A    between atoms: _494  and  _495
REMARK  209  A    between atoms: _494  and  _497
REMARK  210  A    between atoms: _497  and  _498
REMARK  211  A    between atoms: _501  and  _503
REMARK  212  A    between atoms: _503  and  _504
REMARK  213  A    between atoms: _503  and  _506
REMARK  214  A    between atoms: _506  and  _507
REMARK  215  A    between atoms: _507  and  _508
REMARK  216  A    between atoms: _511  and  _513
REMARK  217  A    between atoms: _513  and  _514
REMARK  218  A    between atoms: _513  and  _516
REMARK  219  A    between atoms: _516  and  _517
REMARK  220  A    between atoms: _523  and  _525
REMARK  221  A    between atoms: _525  and  _526
REMARK  222  A    between atoms: _525  and  _528
REMARK  223  A    between atoms: _530  and  _532
REMARK  224  A    between atoms: _532  and  _533
REMARK  225  A    between atoms: _532  and  _535
REMARK  226  A    between atoms: _535  and  _536
REMARK  227  A    between atoms: _542  and  _544
REMARK  228  A    between atoms: _544  and  _545
REMARK  229  A    between atoms: _544  and  _547
REMARK  230  A    between atoms: _547  and  _548
REMARK  231  A    between atoms: _553  and  _554
REMARK  232  A    between atoms: _556  and  _558
REMARK  233  A    between atoms: _558  and  _559
REMARK  234  A    between atoms: _558  and  _561
REMARK  235  A    between atoms: _561  and  _562
REMARK  236  A    between atoms: _565  and  _567
REMARK  237  A    between atoms: _567  and  _568
REMARK  238  A    between atoms: _567  and  _570
REMARK  239  A    between atoms: _570  and  _571
REMARK  240  A    between atoms: _577  and  _579
REMARK  241  A    between atoms: _579  and  _580
REMARK  242  A    between atoms: _579  and  _582
REMARK  243  A    between atoms: _582  and  _583
REMARK  244  A    between atoms: _583  and  _584
REMARK  245  A    between atoms: _584  and  _585
REMARK  246  A    between atoms: _594  and  _596
REMARK  247  A    between atoms: _596  and  _597
REMARK  248  A    between atoms: _596  and  _599
REMARK  249  A    between atoms: _599  and  _600
REMARK  250  A    between atoms: _600  and  _601
REMARK  251  A    between atoms: _604  and  _606
REMARK  252  A    between atoms: _606  and  _607
REMARK  253  A    between atoms: _606  and  _609
REMARK  254  A    between atoms: _609  and  _610
REMARK  255  A    between atoms: _612  and  _614
REMARK  256  A    between atoms: _614  and  _615
REMARK  257  A    between atoms: _614  and  _617
REMARK  258  A    between atoms: _617  and  _618
REMARK  259  A    between atoms: _621  and  _623
REMARK  260  A    between atoms: _623  and  _624
REMARK  261  A    between atoms: _623  and  _626
REMARK  262  A    between atoms: _629  and  _631
REMARK  263  A    between atoms: _631  and  _632
REMARK  264  A    between atoms: _631  and  _634
REMARK  265  A    between atoms: _634  and  _635
REMARK  266  A    between atoms: _635  and  _636
REMARK  267  A    between atoms: _639  and  _641
REMARK  268  A    between atoms: _641  and  _642
REMARK  269  A    between atoms: _641  and  _644
REMARK  270  A    between atoms: _644  and  _645
REMARK  271  A    between atoms: _651  and  _653
REMARK  272  A    between atoms: _653  and  _654
REMARK  273  A    between atoms: _653  and  _656
REMARK  274  A    between atoms: _656  and  _657
REMARK  275  A    between atoms: _660  and  _662
REMARK  276  A    between atoms: _662  and  _663
REMARK  277  A    between atoms: _662  and  _665
REMARK  278  A    between atoms: _665  and  _666
REMARK                            x       y       z     vdW  Elec       q    Type
REMARK                         _______ _______ _______ _____ _____    ______ ____
ROOT
ATOM      1  C   PHE A   7     -27.754  56.518  -4.189  0.00  0.00    +0.241 C 
ATOM      2  N   TYR A   8     -28.333  55.939  -3.142  0.00  0.00    -0.297 N 
ATOM      3  H   TYR A   8     -27.755  55.365  -2.495  0.00  0.00    +0.150 HD
ATOM      4  O   PHE A   7     -28.371  57.203  -5.007  0.00  0.00    -0.273 OA
ENDROOT
BRANCH   1   5
ATOM      5  CA  PHE A   7     -26.258  56.295  -4.342  0.00  0.00    +0.153 C 
BRANCH   5   8
ATOM      6  C   CYS A   6     -25.528  57.288  -2.259  0.00  0.00    +0.242 C 
ATOM      7  O   CYS A   6     -26.083  58.354  -2.539  0.00  0.00    -0.273 OA
ATOM      8  N   PHE A   7     -25.564  56.230  -3.062  0.00  0.00    -0.297 N 
ATOM      9  H   PHE A   7     -25.093  55.348  -2.775  0.00  0.00    +0.150 HD
BRANCH   6  10
ATOM     10  CA  CYS A   6     -24.767  57.126  -0.940  0.00  0.00    +0.160 C 
BRANCH  10  13
ATOM     11  C   PHE A   5     -26.311  55.566   0.086  0.00  0.00    +0.241 C 
ATOM     12  O   PHE A   5     -27.244  56.366   0.033  0.00  0.00    -0.273 OA
ATOM     13  N   CYS A   6     -25.092  55.845  -0.349  0.00  0.00    -0.296 N 
ATOM     14  H   CYS A   6     -24.347  55.124  -0.264  0.00  0.00    +0.150 HD
BRANCH  11  15
ATOM     15  CA  PHE A   5     -26.484  54.173   0.674  0.00  0.00    +0.153 C 
BRANCH  15  17
ATOM     16  C   GLU A   4     -25.962  52.953  -1.341  0.00  0.00    +0.241 C 
ATOM     17  N   PHE A   5     -25.637  53.275  -0.095  0.00  0.00    -0.297 N 
ATOM     18  H   PHE A   5     -24.774  52.884   0.333  0.00  0.00    +0.150 HD
ATOM     19  O   GLU A   4     -26.988  53.364  -1.897  0.00  0.00    -0.273 OA
BRANCH  16  20
ATOM     20  CA  GLU A   4     -24.994  52.034  -2.066  0.00  0.00    +0.149 C 
BRANCH  20  22
ATOM     21  C   LEU A   3     -23.009  53.406  -1.849  0.00  0.00    +0.241 C 
ATOM     22  N   GLU A   4     -23.614  52.242  -1.626  0.00  0.00    -0.297 N 
ATOM     23  H   GLU A   4     -23.105  51.478  -1.138  0.00  0.00    +0.150 HD
ATOM     24  O   LEU A   3     -23.578  54.347  -2.397  0.00  0.00    -0.273 OA
BRANCH  21  25
ATOM     25  CA  LEU A   3     -21.562  53.548  -1.384  0.00  0.00    +0.149 C 
BRANCH  25  28
ATOM     26  C   LEU A   2     -21.891  53.671   1.008  0.00  0.00    +0.241 C 
ATOM     27  O   LEU A   2     -22.587  54.678   0.891  0.00  0.00    -0.273 OA
ATOM     28  N   LEU A   3     -21.346  53.051  -0.034  0.00  0.00    -0.297 N 
ATOM     29  H   LEU A   3     -20.761  52.205   0.117  0.00  0.00    +0.150 HD
BRANCH  26  30
ATOM     30  CA  LEU A   2     -21.603  53.077   2.382  0.00  0.00    +0.149 C 
BRANCH  30  32
ATOM     31  C   ASP A   1     -22.671  50.924   2.054  0.00  0.00    +0.239 C 
ATOM     32  N   LEU A   2     -21.575  51.621   2.325  0.00  0.00    -0.297 N 
ATOM     33  H   LEU A   2     -20.681  51.120   2.500  0.00  0.00    +0.150 HD
ATOM     34  O   ASP A   1     -23.750  51.458   1.837  0.00  0.00    -0.274 OA
BRANCH  31  35
ATOM     35  CA  ASP A   1     -22.539  49.402   2.030  0.00  0.00    +0.156 C 
BRANCH  35  36
ATOM     36  N   ASP A   1     -21.331  48.988   1.325  0.00  0.00    -0.238 NA
ATOM     37  H   ASP A   1     -20.592  48.464   1.836  0.00  0.00    +0.142 HD
ENDBRANCH  35  36
BRANCH  35  38
ATOM     38  CB  ASP A   1     -22.552  48.885   3.477  0.00  0.00    +0.140 C 
BRANCH  38  39
ATOM     39  CG  ASP A   1     -22.629  47.360   3.568  0.00  0.00    +0.367 C 
ATOM     40  OD2 ASP A   1     -22.280  46.815   4.642  0.00  0.00    -0.246 OA
ATOM     41  OD1 ASP A   1     -23.054  46.711   2.586  0.00  0.00    -0.246 OA
ENDBRANCH  38  39
ENDBRANCH  35  38
ENDBRANCH  31  35
ENDBRANCH  30  32
BRANCH  30  42
ATOM     42  CB  LEU A   2     -20.259  53.603   2.891  0.00  0.00    +0.029 C 
BRANCH  42  43
ATOM     43  CG  LEU A   2     -19.865  53.222   4.317  0.00  0.00    +0.002 C 
ATOM     44  CD2 LEU A   2     -20.558  54.141   5.321  0.00  0.00    +0.000 C 
ATOM     45  CD1 LEU A   2     -18.349  53.303   4.449  0.00  0.00    +0.000 C 
ENDBRANCH  42  43
ENDBRANCH  30  42
ENDBRANCH  26  30
ENDBRANCH  25  28
BRANCH  25  46
ATOM     46  CB  LEU A   3     -20.631  52.843  -2.376  0.00  0.00    +0.029 C 
BRANCH  46  47
ATOM     47  CG  LEU A   3     -19.232  53.439  -2.557  0.00  0.00    +0.002 C 
ATOM     48  CD2 LEU A   3     -19.343  54.862  -3.083  0.00  0.00    +0.000 C 
ATOM     49  CD1 LEU A   3     -18.435  52.588  -3.527  0.00  0.00    +0.000 C 
ENDBRANCH  46  47
ENDBRANCH  25  46
ENDBRANCH  21  25
ENDBRANCH  20  22
BRANCH  20  50
ATOM     50  CB  GLU A   4     -25.410  50.572  -1.876  0.00  0.00    +0.041 C 
BRANCH  50  51
ATOM     51  CG  GLU A   4     -25.461  50.091  -0.438  0.00  0.00    +0.116 C 
BRANCH  51  52
ATOM     52  CD  GLU A   4     -25.652  48.580  -0.337  0.00  0.00    +0.365 C 
ATOM     53  OE2 GLU A   4     -24.917  47.937   0.447  0.00  0.00    -0.246 OA
ATOM     54  OE1 GLU A   4     -26.537  48.036  -1.036  0.00  0.00    -0.246 OA
ENDBRANCH  51  52
ENDBRANCH  50  51
ENDBRANCH  20  50
ENDBRANCH  16  20
ENDBRANCH  15  17
BRANCH  15  55
ATOM     55  CB  PHE A   5     -26.070  54.186   2.146  0.00  0.00    +0.055 C 
BRANCH  55  56
ATOM     56  CG  PHE A   5     -26.834  55.180   2.973  0.00  0.00    -0.020 A 
ATOM     57  CD2 PHE A   5     -26.187  56.260   3.562  0.00  0.00    -0.004 A 
ATOM     58  CE2 PHE A   5     -26.893  57.191   4.312  0.00  0.00    -0.000 A 
ATOM     59  CZ  PHE A   5     -28.260  57.049   4.478  0.00  0.00    -0.000 A 
ATOM     60  CE1 PHE A   5     -28.922  55.975   3.894  0.00  0.00    -0.000 A 
ATOM     61  CD1 PHE A   5     -28.207  55.048   3.145  0.00  0.00    -0.004 A 
ENDBRANCH  55  56
ENDBRANCH  15  55
ENDBRANCH  11  15
ENDBRANCH  10  13
BRANCH  10  62
ATOM     62  CB  CYS A   6     -23.261  57.207  -1.184  0.00  0.00    +0.098 C 
ATOM     63  SG  CYS A   6     -22.726  58.722  -1.994  0.00  0.00    -0.080 S 
ENDBRANCH  10  62
ENDBRANCH   6  10
ENDBRANCH   5   8
BRANCH   5  64
ATOM     64  CB  PHE A   7     -26.007  55.030  -5.166  0.00  0.00    +0.055 C 
BRANCH  64  65
ATOM     65  CG  PHE A   7     -24.573  54.847  -5.563  0.00  0.00    -0.020 A 
ATOM     66  CD2 PHE A   7     -23.705  55.936  -5.611  0.00  0.00    -0.004 A 
ATOM     67  CE2 PHE A   7     -22.375  55.775  -5.987  0.00  0.00    -0.000 A 
ATOM     68  CZ  PHE A   7     -21.901  54.513  -6.322  0.00  0.00    -0.000 A 
ATOM     69  CE1 PHE A   7     -22.760  53.417  -6.280  0.00  0.00    -0.000 A 
ATOM     70  CD1 PHE A   7     -24.088  53.589  -5.900  0.00  0.00    -0.004 A 
ENDBRANCH  64  65
ENDBRANCH   5  64
ENDBRANCH   1   5
BRANCH   2  71
ATOM     71  CA  TYR A   8     -29.755  56.088  -2.879  0.00  0.00    +0.153 C 
BRANCH  71  72
ATOM     72  C   TYR A   8     -30.067  57.534  -2.508  0.00  0.00    +0.241 C 
ATOM     73  N   THR A   9     -29.344  58.066  -1.522  0.00  0.00    -0.295 N 
ATOM     74  H   THR A   9     -28.618  57.483  -1.058  0.00  0.00    +0.150 HD
ATOM     75  O   TYR A   8     -30.935  58.156  -3.113  0.00  0.00    -0.273 OA
BRANCH  73  76
ATOM     76  CA  THR A   9     -29.540  59.444  -1.073  0.00  0.00    +0.176 C 
BRANCH  76  77
ATOM     77  C   THR A   9     -29.412  60.414  -2.239  0.00  0.00    +0.243 C 
ATOM     78  O   THR A   9     -30.115  61.420  -2.296  0.00  0.00    -0.273 OA
ATOM     79  N   PHE A  10     -28.503  60.109  -3.162  0.00  0.00    -0.297 N 
ATOM     80  H   PHE A  10     -27.942  59.241  -3.046  0.00  0.00    +0.150 HD
BRANCH  79  81
ATOM     81  CA  PHE A  10     -28.265  60.949  -4.331  0.00  0.00    +0.153 C 
BRANCH  81  82
ATOM     82  C   PHE A  10     -29.438  60.879  -5.310  0.00  0.00    +0.241 C 
ATOM     83  O   PHE A  10     -30.007  61.902  -5.687  0.00  0.00    -0.273 OA
ATOM     84  N   ARG A  11     -29.794  59.665  -5.715  0.00  0.00    -0.297 N 
ATOM     85  H   ARG A  11     -29.273  58.839  -5.357  0.00  0.00    +0.150 HD
BRANCH  84  86
ATOM     86  CA  ARG A  11     -30.896  59.459  -6.648  0.00  0.00    +0.149 C 
BRANCH  86  87
ATOM     87  C   ARG A  11     -32.247  59.801  -6.026  0.00  0.00    +0.241 C 
ATOM     88  N   GLU A  12     -32.230  60.330  -4.807  0.00  0.00    -0.297 N 
ATOM     89  H   GLU A  12     -31.316  60.490  -4.337  0.00  0.00    +0.150 HD
ATOM     90  O   ARG A  11     -33.289  59.585  -6.645  0.00  0.00    -0.273 OA
BRANCH  88  91
ATOM     91  CA  GLU A  12     -33.461  60.692  -4.111  0.00  0.00    +0.149 C 
BRANCH  91  92
ATOM     92  C   GLU A  12     -33.304  62.031  -3.403  0.00  0.00    +0.241 C 
ATOM     93  O   GLU A  12     -34.246  62.535  -2.797  0.00  0.00    -0.273 OA
ATOM     94  N   SER A  13     -32.107  62.603  -3.480  0.00  0.00    -0.296 N 
ATOM     95  H   SER A  13     -31.347  62.128  -4.008  0.00  0.00    +0.150 HD
BRANCH  94  96
ATOM     96  CA  SER A  13     -31.840  63.882  -2.839  0.00  0.00    +0.166 C 
BRANCH  96  97
ATOM     97  CB  SER A  13     -32.800  64.924  -3.386  0.00  0.00    +0.229 C 
ATOM     98  OG  SER A  13     -32.932  66.019  -2.838  0.00  0.00    -0.286 OA
ENDBRANCH  96  97
BRANCH  96  99
ATOM     99  C   SER A  13     -30.394  64.310  -3.096  0.00  0.00    +0.165 C 
BRANCH  99 100
ATOM    100  O   SER A  13     -30.092  64.298  -4.480  0.00  0.00    -0.380 OA
ATOM    101  H   SER A  13     -30.218  63.383  -4.836  0.00  0.00    +0.211 HD
ENDBRANCH  99 100
ENDBRANCH  96  99
ENDBRANCH  94  96
ENDBRANCH  91  92
BRANCH  91 102
ATOM    102  CB  GLU A  12     -33.827  59.615  -3.085  0.00  0.00    +0.041 C 
BRANCH 102 103
ATOM    103  CG  GLU A  12     -34.058  58.229  -3.685  0.00  0.00    +0.116 C 
BRANCH 103 104
ATOM    104  CD  GLU A  12     -35.500  57.980  -4.102  0.00  0.00    +0.365 C 
ATOM    105  OE2 GLU A  12     -36.360  57.836  -3.208  0.00  0.00    -0.246 OA
ATOM    106  OE1 GLU A  12     -35.773  57.928  -5.321  0.00  0.00    -0.246 OA
ENDBRANCH 103 104
ENDBRANCH 102 103
ENDBRANCH  91 102
ENDBRANCH  88  91
ENDBRANCH  86  87
BRANCH  86 107
ATOM    107  CB  ARG A  11     -30.915  58.007  -7.130  0.00  0.00    +0.033 C 
BRANCH 107 108
ATOM    108  CG  ARG A  11     -30.805  57.859  -8.638  0.00  0.00    +0.045 C 
BRANCH 108 109
ATOM    109  CD  ARG A  11     -30.864  56.399  -9.060  0.00  0.00    +0.174 C 
BRANCH 109 110
ATOM    110  NE  ARG A  11     -29.823  55.605  -8.411  0.00  0.00    -0.265 N 
ATOM    111  HE  ARG A  11     -29.247  56.068  -7.679  0.00  0.00    +0.259 HD
ATOM    112  CZ  ARG A  11     -29.561  54.331  -8.691  0.00  0.00    +0.342 C 
ATOM    113  NH2 ARG A  11     -28.592  53.694  -8.046  0.00  0.00    -0.292 N 
ATOM    114 HH21 ARG A  11     -28.036  54.191  -7.321  0.00  0.00    +0.255 HD
ATOM    115 HH22 ARG A  11     -28.388  52.698  -8.266  0.00  0.00    +0.255 HD
ATOM    116  NH1 ARG A  11     -30.266  53.693  -9.616  0.00  0.00    -0.292 N 
ATOM    117 HH11 ARG A  11     -30.059  52.697  -9.833  0.00  0.00    +0.255 HD
ATOM    118 HH12 ARG A  11     -31.026  54.189 -10.124  0.00  0.00    +0.255 HD
ENDBRANCH 109 110
ENDBRANCH 108 109
ENDBRANCH 107 108
ENDBRANCH  86 107
ENDBRANCH  84  86
ENDBRANCH  81  82
BRANCH  81 119
ATOM    119  CB  PHE A  10     -26.980  60.505  -5.036  0.00  0.00    +0.055 C 
BRANCH 119 120
ATOM    120  CG  PHE A  10     -26.589  61.381  -6.191  0.00  0.00    -0.020 A 
ATOM    121  CD2 PHE A  10     -26.087  62.658  -5.973  0.00  0.00    -0.004 A 
ATOM    122  CE2 PHE A  10     -25.744  63.492  -7.043  0.00  0.00    -0.000 A 
ATOM    123  CZ  PHE A  10     -25.902  63.042  -8.348  0.00  0.00    -0.000 A 
ATOM    124  CE1 PHE A  10     -26.405  61.760  -8.578  0.00  0.00    -0.000 A 
ATOM    125  CD1 PHE A  10     -26.743  60.937  -7.500  0.00  0.00    -0.004 A 
ENDBRANCH 119 120
ENDBRANCH  81 119
ENDBRANCH  79  81
ENDBRANCH  76  77
BRANCH  76 126
ATOM    126  CB  THR A   9     -28.500  59.848   0.002  0.00  0.00    +0.137 C 
ATOM    127  CG2 THR A   9     -28.730  61.286   0.463  0.00  0.00    +0.034 C 
BRANCH 126 128
ATOM    128  OG1 THR A   9     -28.612  58.976   1.134  0.00  0.00    -0.382 OA
ATOM    129  HG1 THR A   9     -28.444  58.043   0.848  0.00  0.00    +0.210 HD
ENDBRANCH 126 128
ENDBRANCH  76 126
ENDBRANCH  73  76
ENDBRANCH  71  72
BRANCH  71 130
ATOM    130  CB  TYR A   8     -30.177  55.148  -1.751  0.00  0.00    +0.055 C 
BRANCH 130 131
ATOM    131  CG  TYR A   8     -31.476  55.524  -1.084  0.00  0.00    -0.020 A 
ATOM    132  CD2 TYR A   8     -31.510  55.854   0.268  0.00  0.00    -0.001 A 
ATOM    133  CE2 TYR A   8     -32.697  56.203   0.890  0.00  0.00    +0.036 A 
ATOM    134  CZ  TYR A   8     -33.871  56.249   0.178  0.00  0.00    +0.134 A 
ATOM    135  CE1 TYR A   8     -33.876  55.932  -1.176  0.00  0.00    +0.036 A 
ATOM    136  CD1 TYR A   8     -32.678  55.563  -1.802  0.00  0.00    -0.001 A 
BRANCH 134 137
ATOM    137  OH  TYR A   8     -35.034  56.624   0.822  0.00  0.00    -0.506 OA
ATOM    138  HH  TYR A   8     -35.786  56.608   0.178  0.00  0.00    +0.292 HD
ENDBRANCH 134 137
ENDBRANCH 130 131
ENDBRANCH  71 130
ENDBRANCH   2  71
TORSDOF 56
REMARK  Name = ../refined-set-2016/2oax/2oax_pocket.pdb
REMARK  278 active torsions:
REMARK  status: ('A' for Active; 'I' for Inactive)
REMARK    1  A    between atoms: _1  and  _3
REMARK    2  A    between atoms: _3  and  _4
REMARK    3  A    between atoms: _7  and  _9
REMARK    4  A    between atoms: _9  and  _10
REMARK    5  A    between atoms: _9  and  _12
REMARK    6  A    between atoms: _12  and  _13
REMARK    7  A    between atoms: _13  and  _14
REMARK    8  A    between atoms: _17  and  _19
REMARK    9  A    between atoms: _19  and  _20
REMARK   10  A    between atoms: _19  and  _22
REMARK   11  A    between atoms: _22  and  _23
REMARK   12  A    between atoms: _26  and  _28
REMARK   13  A    between atoms: _28  and  _29
REMARK   14  A    between atoms: _28  and  _31
REMARK   15  A    between atoms: _31  and  _32
REMARK   16  A    between atoms: _35  and  _37
REMARK   17  A    between atoms: _37  and  _38
REMARK   18  A    between atoms: _37  and  _40
REMARK   19  A    between atoms: _40  and  _41
REMARK   20  A    between atoms: _43  and  _45
REMARK   21  A    between atoms: _45  and  _46
REMARK   22  A    between atoms: _45  and  _48
REMARK   23  A    between atoms: _48  and  _49
REMARK   24  A    between atoms: _52  and  _54
REMARK   25  A    between atoms: _54  and  _55
REMARK   26  A    between atoms: _54  and  _57
REMARK   27  A    between atoms: _57  and  _58
REMARK   28  A    between atoms: _61  and  _63
REMARK   29  A    between atoms: _63  and  _64
REMARK   30  A    between atoms: _63  and  _66
REMARK   31  A    between atoms: _66  and  _67
REMARK   32  A    between atoms: _72  and  _74
REMARK   33  A    between atoms: _74  and  _75
REMARK   34  A    between atoms: _74  and  _77
REMARK   35  A    between atoms: _77  and  _78
REMARK   36  A    between atoms: _78  and  _79
REMARK   37  A    between atoms: _79  and  _80
REMARK   38  A    between atoms: _89  and  _91
REMARK   39  A    between atoms: _91  and  _92
REMARK   40  A    between atoms: _91  and  _94
REMARK   41  A    between atoms: _94  and  _95
REMARK   42  A    between atoms: _98  and  _100
REMARK   43  A    between atoms: _100  and  _101
REMARK   44  A    between atoms: _104  and  _106
REMARK   45  A    between atoms: _106  and  _107
REMARK   46  A    between atoms: _109  and  _111
REMARK   47  A    between atoms: _111  and  _112
REMARK   48  A    between atoms: _111  and  _114
REMARK   49  A    between atoms: _114  and  _115
REMARK   50  A    between atoms: _115  and  _116
REMARK   51  A    between atoms: _116  and  _117
REMARK   52  A    between atoms: _117  and  _118
REMARK   53  A    between atoms: _122  and  _124
REMARK   54  A    between atoms: _124  and  _125
REMARK   55  A    between atoms: _124  and  _127
REMARK   56  A    between atoms: _127  and  _128
REMARK   57  A    between atoms: _128  and  _129
REMARK   58  A    between atoms: _134  and  _136
REMARK   59  A    between atoms: _136  and  _137
REMARK   60  A    between atoms: _136  and  _139
REMARK   61  A    between atoms: _139  and  _140
REMARK   62  A    between atoms: _140  and  _141
REMARK   63  A    between atoms: _143  and  _145
REMARK   64  A    between atoms: _145  and  _146
REMARK   65  A    between atoms: _145  and  _148
REMARK   66  A    between atoms: _148  and  _149
REMARK   67  A    between atoms: _159  and  _161
REMARK   68  A    between atoms: _161  and  _162
REMARK   69  A    between atoms: _161  and  _164
REMARK   70  A    between atoms: _164  and  _165
REMARK   71  A    between atoms: _165  and  _166
REMARK   72  A    between atoms: _168  and  _170
REMARK   73  A    between atoms: _170  and  _171
REMARK   74  A    between atoms: _170  and  _173
REMARK   75  A    between atoms: _175  and  _177
REMARK   76  A    between atoms: _177  and  _178
REMARK   77  A    between atoms: _177  and  _180
REMARK   78  A    between atoms: _180  and  _181
REMARK   79  A    between atoms: _184  and  _186
REMARK   80  A    between atoms: _186  and  _187
REMARK   81  A    between atoms: _186  and  _189
REMARK   82  A    between atoms: _189  and  _190
REMARK   83  A    between atoms: _193  and  _195
REMARK   84  A    between atoms: _195  and  _196
REMARK   85  A    between atoms: _195  and  _198
REMARK   86  A    between atoms: _198  and  _199
REMARK   87  A    between atoms: _201  and  _203
REMARK   88  A    between atoms: _203  and  _204
REMARK   89  A    between atoms: _203  and  _206
REMARK   90  A    between atoms: _206  and  _207
REMARK   91  A    between atoms: _213  and  _215
REMARK   92  A    between atoms: _215  and  _216
REMARK   93  A    between atoms: _219  and  _221
REMARK   94  A    between atoms: _221  and  _222
REMARK   95  A    between atoms: _221  and  _224
REMARK   96  A    between atoms: _224  and  _225
REMARK   97  A    between atoms: _228  and  _230
REMARK   98  A    between atoms: _230  and  _231
REMARK   99  A    between atoms: _230  and  _233
REMARK  100  A    between atoms: _233  and  _234
REMARK  101  A    between atoms: _236  and  _238
REMARK  102  A    between atoms: _238  and  _239
REMARK  103  A    between atoms: _238  and  _241
REMARK  104  A    between atoms: _241  and  _242
REMARK  105  A    between atoms: _252  and  _254
REMARK  106  A    between atoms: _254  and  _255
REMARK  107  A    between atoms: _254  and  _257
REMARK  108  A    between atoms: _257  and  _258
REMARK  109  A    between atoms: _258  and  _259
REMARK  110  A    between atoms: _259  and  _260
REMARK  111  A    between atoms: _269  and  _271
REMARK  112  A    between atoms: _271  and  _272
REMARK  113  A    between atoms: _271  and  _274
REMARK  114  A    between atoms: _274  and  _275
REMARK  115  A    between atoms: _277  and  _279
REMARK  116  A    between atoms: _279  and  _280
REMARK  117  A    between atoms: _279  and  _282
REMARK  118  A    between atoms: _282  and  _283
REMARK  119  A    between atoms: _286  and  _288
REMARK  120  A    between atoms: _288  and  _289
REMARK  121  A    between atoms: _288  and  _291
REMARK  122  A    between atoms: _291  and  _292
REMARK  123  A    between atoms: _297  and  _298
REMARK  124  A    between atoms: _300  and  _302
REMARK  125  A    between atoms: _302  and  _303
REMARK  126  A    between atoms: _302  and  _305
REMARK  127  A    between atoms: _305  and  _306
REMARK  128  A    between atoms: _312  and  _314
REMARK  129  A    between atoms: _314  and  _315
REMARK  130  A    between atoms: _318  and  _320
REMARK  131  A    between atoms: _320  and  _321
REMARK  132  A    between atoms: _320  and  _323
REMARK  133  A    between atoms: _323  and  _324
REMARK  134  A    between atoms: _327  and  _329
REMARK  135  A    between atoms: _329  and  _330
REMARK  136  A    between atoms: _329  and  _332
REMARK  137  A    between atoms: _332  and  _333
REMARK  138  A    between atoms: _339  and  _341
REMARK  139  A    between atoms: _341  and  _342
REMARK  140  A    between atoms: _341  and  _344
REMARK  141  A    between atoms: _344  and  _345
REMARK  142  A    between atoms: _345  and  _346
REMARK  143  A    between atoms: _348  and  _350
REMARK  144  A    between atoms: _350  and  _351
REMARK  145  A    between atoms: _350  and  _353
REMARK  146  A    between atoms: _353  and  _354
REMARK  147  A    between atoms: _356  and  _358
REMARK  148  A    between atoms: _358  and  _359
REMARK  149  A    between atoms: _362  and  _364
REMARK  150  A    between atoms: _364  and  _365
REMARK  151  A    between atoms: _364  and  _367
REMARK  152  A    between atoms: _367  and  _368
REMARK  153  A    between atoms: _368  and  _369
REMARK  154  A    between atoms: _371  and  _373
REMARK  155  A    between atoms: _373  and  _374
REMARK  156  A    between atoms: _373  and  _376
REMARK  157  A    between atoms: _376  and  _377
REMARK  158  A    between atoms: _382  and  _383
REMARK  159  A    between atoms: _385  and  _387
REMARK  160  A    between atoms: _387  and  _388
REMARK  161  A    between atoms: _387  and  _390
REMARK  162  A    between atoms: _390  and  _391
REMARK  163  A    between atoms: _391  and  _392
REMARK  164  A    between atoms: _395  and  _397
REMARK  165  A    between atoms: _397  and  _398
REMARK  166  A    between atoms: _397  and  _400
REMARK  167  A    between atoms: _400  and  _401
REMARK  168  A    between atoms: _404  and  _406
REMARK  169  A    between atoms: _406  and  _407
REMARK  170  A    between atoms: _406  and  _409
REMARK  171  A    between atoms: _411  and  _413
REMARK  172  A    between atoms: _413  and  _414
REMARK  173  A    between atoms: _413  and  _416
REMARK  174  A    between atoms: _416  and  _417
REMARK  175  A    between atoms: _417  and  _418
REMARK  176  A    between atoms: _423  and  _425
REMARK  177  A    between atoms: _425  and  _426
REMARK  178  A    between atoms: _428  and  _430
REMARK  179  A    between atoms: _430  and  _431
REMARK  180  A    between atoms: _430  and  _433
REMARK  181  A    between atoms: _433  and  _434
REMARK  182  A    between atoms: _434  and  _435
REMARK  183  A    between atoms: _437  and  _439
REMARK  184  A    between atoms: _439  and  _440
REMARK  185  A    between atoms: _439  and  _442
REMARK  186  A    between atoms: _442  and  _443
REMARK  187  A    between atoms: _448  and  _450
REMARK  188  A    between atoms: _450  and  _451
REMARK  189  A    between atoms: _450  and  _453
REMARK  190  A    between atoms: _453  and  _454
REMARK  191  A    between atoms: _454  and  _455
REMARK  192  A    between atoms: _457  and  _459
REMARK  193  A    between atoms: _459  and  _460
REMARK  194  A    between atoms: _459  and  _462
REMARK  195  A    between atoms: _462  and  _463
REMARK  196  A    between atoms: _466  and  _468
REMARK  197  A    between atoms: _468  and  _469
REMARK  198  A    between atoms: _468  and  _471
REMARK  199  A    between atoms: _474  and  _476
REMARK  200  A    between atoms: _476  and  _477
REMARK  201  A    between atoms: _476  and  _479
REMARK  202  A    between atoms: _479  and  _480
REMARK  203  A    between atoms: _483  and  _485
REMARK  204  A    between atoms: _485  and  _486
REMARK  205  A    between atoms: _485  and  _488
REMARK  206  A    between atoms: _488  and  _489
REMARK  207  A    between atoms: _492  and  _494
REMARK  208  A    between atoms: _494  and  _495
REMARK  209  A    between atoms: _494  and  _497
REMARK  210  A    between atoms: _497  and  _498
REMARK  211  A    between atoms: _501  and  _503
REMARK  212  A    between atoms: _503  and  _504
REMARK  213  A    between atoms: _503  and  _506
REMARK  214  A    between atoms: _506  and  _507
REMARK  215  A    between atoms: _507  and  _508
REMARK  216  A    between atoms: _511  and  _513
REMARK  217  A    between atoms: _513  and  _514
REMARK  218  A    between atoms: _513  and  _516
REMARK  219  A    between atoms: _516  and  _517
REMARK  220  A    between atoms: _523  and  _525
REMARK  221  A    between atoms: _525  and  _526
REMARK  222  A    between atoms: _525  and  _528
REMARK  223  A    between atoms: _530  and  _532
REMARK  224  A    between atoms: _532  and  _533
REMARK  225  A    between atoms: _532  and  _535
REMARK  226  A    between atoms: _535  and  _536
REMARK  227  A    between atoms: _542  and  _544
REMARK  228  A    between atoms: _544  and  _545
REMARK  229  A    between atoms: _544  and  _547
REMARK  230  A    between atoms: _547  and  _548
REMARK  231  A    between atoms: _553  and  _554
REMARK  232  A    between atoms: _556  and  _558
REMARK  233  A    between atoms: _558  and  _559
REMARK  234  A    between atoms: _558  and  _561
REMARK  235  A    between atoms: _561  and  _562
REMARK  236  A    between atoms: _565  and  _567
REMARK  237  A    between atoms: _567  and  _568
REMARK  238  A    between atoms: _567  and  _570
REMARK  239  A    between atoms: _570  and  _571
REMARK  240  A    between atoms: _577  and  _579
REMARK  241  A    between atoms: _579  and  _580
REMARK  242  A    between atoms: _579  and  _582
REMARK  243  A    between atoms: _582  and  _583
REMARK  244  A    between atoms: _583  and  _584
REMARK  245  A    between atoms: _584  and  _585
REMARK  246  A    between atoms: _594  and  _596
REMARK  247  A    between atoms: _596  and  _597
REMARK  248  A    between atoms: _596  and  _599
REMARK  249  A    between atoms: _599  and  _600
REMARK  250  A    between atoms: _600  and  _601
REMARK  251  A    between atoms: _604  and  _606
REMARK  252  A    between atoms: _606  and  _607
REMARK  253  A    between atoms: _606  and  _609
REMARK  254  A    between atoms: _609  and  _610
REMARK  255  A    between atoms: _612  and  _614
REMARK  256  A    between atoms: _614  and  _615
REMARK  257  A    between atoms: _614  and  _617
REMARK  258  A    between atoms: _617  and  _618
REMARK  259  A    between atoms: _621  and  _623
REMARK  260  A    between atoms: _623  and  _624
REMARK  261  A    between atoms: _623  and  _626
REMARK  262  A    between atoms: _629  and  _631
REMARK  263  A    between atoms: _631  and  _632
REMARK  264  A    between atoms: _631  and  _634
REMARK  265  A    between atoms: _634  and  _635
REMARK  266  A    between atoms: _635  and  _636
REMARK  267  A    between atoms: _639  and  _641
REMARK  268  A    between atoms: _641  and  _642
REMARK  269  A    between atoms: _641  and  _644
REMARK  270  A    between atoms: _644  and  _645
REMARK  271  A    between atoms: _651  and  _653
REMARK  272  A    between atoms: _653  and  _654
REMARK  273  A    between atoms: _653  and  _656
REMARK  274  A    between atoms: _656  and  _657
REMARK  275  A    between atoms: _660  and  _662
REMARK  276  A    between atoms: _662  and  _663
REMARK  277  A    between atoms: _662  and  _665
REMARK  278  A    between atoms: _665  and  _666
REMARK                            x       y       z     vdW  Elec       q    Type
REMARK                         _______ _______ _______ _____ _____    ______ ____
ROOT
ATOM      1  CA  LEU A   1     -34.409  64.338   0.806  0.00  0.00    +0.133 C 
ENDROOT
BRANCH   1   2
ATOM      2  N   LEU A   1     -35.085  64.426  -0.490  0.00  0.00    -0.239 NA
ATOM      3  H   LEU A   1     -34.757  63.824  -1.272  0.00  0.00    +0.142 HD
ENDBRANCH   1   2
BRANCH   1   4
ATOM      4  C   LEU A   1     -33.770  65.667   1.166  0.00  0.00    +0.224 C 
ATOM      5  O   LEU A   1     -33.389  65.889   2.314  0.00  0.00    -0.287 OA
ENDBRANCH   1   4
BRANCH   1   6
ATOM      6  CB  LEU A   1     -33.313  63.263   0.766  0.00  0.00    +0.025 C 
BRANCH   6   7
ATOM      7  CG  LEU A   1     -33.665  62.018  -0.062  0.00  0.00    +0.002 C 
ATOM      8  CD2 LEU A   1     -34.774  61.287   0.607  0.00  0.00    +0.000 C 
ATOM      9  CD1 LEU A   1     -32.441  61.127  -0.239  0.00  0.00    +0.000 C 
ENDBRANCH   6   7
ENDBRANCH   1   6
TORSDOF 4
REMARK  Name = ../refined-set-2016/2oax/2oax_pocket.pdb
REMARK  278 active torsions:
REMARK  status: ('A' for Active; 'I' for Inactive)
REMARK    1  A    between atoms: _1  and  _3
REMARK    2  A    between atoms: _3  and  _4
REMARK    3  A    between atoms: _7  and  _9
REMARK    4  A    between atoms: _9  and  _10
REMARK    5  A    between atoms: _9  and  _12
REMARK    6  A    between atoms: _12  and  _13
REMARK    7  A    between atoms: _13  and  _14
REMARK    8  A    between atoms: _17  and  _19
REMARK    9  A    between atoms: _19  and  _20
REMARK   10  A    between atoms: _19  and  _22
REMARK   11  A    between atoms: _22  and  _23
REMARK   12  A    between atoms: _26  and  _28
REMARK   13  A    between atoms: _28  and  _29
REMARK   14  A    between atoms: _28  and  _31
REMARK   15  A    between atoms: _31  and  _32
REMARK   16  A    between atoms: _35  and  _37
REMARK   17  A    between atoms: _37  and  _38
REMARK   18  A    between atoms: _37  and  _40
REMARK   19  A    between atoms: _40  and  _41
REMARK   20  A    between atoms: _43  and  _45
REMARK   21  A    between atoms: _45  and  _46
REMARK   22  A    between atoms: _45  and  _48
REMARK   23  A    between atoms: _48  and  _49
REMARK   24  A    between atoms: _52  and  _54
REMARK   25  A    between atoms: _54  and  _55
REMARK   26  A    between atoms: _54  and  _57
REMARK   27  A    between atoms: _57  and  _58
REMARK   28  A    between atoms: _61  and  _63
REMARK   29  A    between atoms: _63  and  _64
REMARK   30  A    between atoms: _63  and  _66
REMARK   31  A    between atoms: _66  and  _67
REMARK   32  A    between atoms: _72  and  _74
REMARK   33  A    between atoms: _74  and  _75
REMARK   34  A    between atoms: _74  and  _77
REMARK   35  A    between atoms: _77  and  _78
REMARK   36  A    between atoms: _78  and  _79
REMARK   37  A    between atoms: _79  and  _80
REMARK   38  A    between atoms: _89  and  _91
REMARK   39  A    between atoms: _91  and  _92
REMARK   40  A    between atoms: _91  and  _94
REMARK   41  A    between atoms: _94  and  _95
REMARK   42  A    between atoms: _98  and  _100
REMARK   43  A    between atoms: _100  and  _101
REMARK   44  A    between atoms: _104  and  _106
REMARK   45  A    between atoms: _106  and  _107
REMARK   46  A    between atoms: _109  and  _111
REMARK   47  A    between atoms: _111  and  _112
REMARK   48  A    between atoms: _111  and  _114
REMARK   49  A    between atoms: _114  and  _115
REMARK   50  A    between atoms: _115  and  _116
REMARK   51  A    between atoms: _116  and  _117
REMARK   52  A    between atoms: _117  and  _118
REMARK   53  A    between atoms: _122  and  _124
REMARK   54  A    between atoms: _124  and  _125
REMARK   55  A    between atoms: _124  and  _127
REMARK   56  A    between atoms: _127  and  _128
REMARK   57  A    between atoms: _128  and  _129
REMARK   58  A    between atoms: _134  and  _136
REMARK   59  A    between atoms: _136  and  _137
REMARK   60  A    between atoms: _136  and  _139
REMARK   61  A    between atoms: _139  and  _140
REMARK   62  A    between atoms: _140  and  _141
REMARK   63  A    between atoms: _143  and  _145
REMARK   64  A    between atoms: _145  and  _146
REMARK   65  A    between atoms: _145  and  _148
REMARK   66  A    between atoms: _148  and  _149
REMARK   67  A    between atoms: _159  and  _161
REMARK   68  A    between atoms: _161  and  _162
REMARK   69  A    between atoms: _161  and  _164
REMARK   70  A    between atoms: _164  and  _165
REMARK   71  A    between atoms: _165  and  _166
REMARK   72  A    between atoms: _168  and  _170
REMARK   73  A    between atoms: _170  and  _171
REMARK   74  A    between atoms: _170  and  _173
REMARK   75  A    between atoms: _175  and  _177
REMARK   76  A    between atoms: _177  and  _178
REMARK   77  A    between atoms: _177  and  _180
REMARK   78  A    between atoms: _180  and  _181
REMARK   79  A    between atoms: _184  and  _186
REMARK   80  A    between atoms: _186  and  _187
REMARK   81  A    between atoms: _186  and  _189
REMARK   82  A    between atoms: _189  and  _190
REMARK   83  A    between atoms: _193  and  _195
REMARK   84  A    between atoms: _195  and  _196
REMARK   85  A    between atoms: _195  and  _198
REMARK   86  A    between atoms: _198  and  _199
REMARK   87  A    between atoms: _201  and  _203
REMARK   88  A    between atoms: _203  and  _204
REMARK   89  A    between atoms: _203  and  _206
REMARK   90  A    between atoms: _206  and  _207
REMARK   91  A    between atoms: _213  and  _215
REMARK   92  A    between atoms: _215  and  _216
REMARK   93  A    between atoms: _219  and  _221
REMARK   94  A    between atoms: _221  and  _222
REMARK   95  A    between atoms: _221  and  _224
REMARK   96  A    between atoms: _224  and  _225
REMARK   97  A    between atoms: _228  and  _230
REMARK   98  A    between atoms: _230  and  _231
REMARK   99  A    between atoms: _230  and  _233
REMARK  100  A    between atoms: _233  and  _234
REMARK  101  A    between atoms: _236  and  _238
REMARK  102  A    between atoms: _238  and  _239
REMARK  103  A    between atoms: _238  and  _241
REMARK  104  A    between atoms: _241  and  _242
REMARK  105  A    between atoms: _252  and  _254
REMARK  106  A    between atoms: _254  and  _255
REMARK  107  A    between atoms: _254  and  _257
REMARK  108  A    between atoms: _257  and  _258
REMARK  109  A    between atoms: _258  and  _259
REMARK  110  A    between atoms: _259  and  _260
REMARK  111  A    between atoms: _269  and  _271
REMARK  112  A    between atoms: _271  and  _272
REMARK  113  A    between atoms: _271  and  _274
REMARK  114  A    between atoms: _274  and  _275
REMARK  115  A    between atoms: _277  and  _279
REMARK  116  A    between atoms: _279  and  _280
REMARK  117  A    between atoms: _279  and  _282
REMARK  118  A    between atoms: _282  and  _283
REMARK  119  A    between atoms: _286  and  _288
REMARK  120  A    between atoms: _288  and  _289
REMARK  121  A    between atoms: _288  and  _291
REMARK  122  A    between atoms: _291  and  _292
REMARK  123  A    between atoms: _297  and  _298
REMARK  124  A    between atoms: _300  and  _302
REMARK  125  A    between atoms: _302  and  _303
REMARK  126  A    between atoms: _302  and  _305
REMARK  127  A    between atoms: _305  and  _306
REMARK  128  A    between atoms: _312  and  _314
REMARK  129  A    between atoms: _314  and  _315
REMARK  130  A    between atoms: _318  and  _320
REMARK  131  A    between atoms: _320  and  _321
REMARK  132  A    between atoms: _320  and  _323
REMARK  133  A    between atoms: _323  and  _324
REMARK  134  A    between atoms: _327  and  _329
REMARK  135  A    between atoms: _329  and  _330
REMARK  136  A    between atoms: _329  and  _332
REMARK  137  A    between atoms: _332  and  _333
REMARK  138  A    between atoms: _339  and  _341
REMARK  139  A    between atoms: _341  and  _342
REMARK  140  A    between atoms: _341  and  _344
REMARK  141  A    between atoms: _344  and  _345
REMARK  142  A    between atoms: _345  and  _346
REMARK  143  A    between atoms: _348  and  _350
REMARK  144  A    between atoms: _350  and  _351
REMARK  145  A    between atoms: _350  and  _353
REMARK  146  A    between atoms: _353  and  _354
REMARK  147  A    between atoms: _356  and  _358
REMARK  148  A    between atoms: _358  and  _359
REMARK  149  A    between atoms: _362  and  _364
REMARK  150  A    between atoms: _364  and  _365
REMARK  151  A    between atoms: _364  and  _367
REMARK  152  A    between atoms: _367  and  _368
REMARK  153  A    between atoms: _368  and  _369
REMARK  154  A    between atoms: _371  and  _373
REMARK  155  A    between atoms: _373  and  _374
REMARK  156  A    between atoms: _373  and  _376
REMARK  157  A    between atoms: _376  and  _377
REMARK  158  A    between atoms: _382  and  _383
REMARK  159  A    between atoms: _385  and  _387
REMARK  160  A    between atoms: _387  and  _388
REMARK  161  A    between atoms: _387  and  _390
REMARK  162  A    between atoms: _390  and  _391
REMARK  163  A    between atoms: _391  and  _392
REMARK  164  A    between atoms: _395  and  _397
REMARK  165  A    between atoms: _397  and  _398
REMARK  166  A    between atoms: _397  and  _400
REMARK  167  A    between atoms: _400  and  _401
REMARK  168  A    between atoms: _404  and  _406
REMARK  169  A    between atoms: _406  and  _407
REMARK  170  A    between atoms: _406  and  _409
REMARK  171  A    between atoms: _411  and  _413
REMARK  172  A    between atoms: _413  and  _414
REMARK  173  A    between atoms: _413  and  _416
REMARK  174  A    between atoms: _416  and  _417
REMARK  175  A    between atoms: _417  and  _418
REMARK  176  A    between atoms: _423  and  _425
REMARK  177  A    between atoms: _425  and  _426
REMARK  178  A    between atoms: _428  and  _430
REMARK  179  A    between atoms: _430  and  _431
REMARK  180  A    between atoms: _430  and  _433
REMARK  181  A    between atoms: _433  and  _434
REMARK  182  A    between atoms: _434  and  _435
REMARK  183  A    between atoms: _437  and  _439
REMARK  184  A    between atoms: _439  and  _440
REMARK  185  A    between atoms: _439  and  _442
REMARK  186  A    between atoms: _442  and  _443
REMARK  187  A    between atoms: _448  and  _450
REMARK  188  A    between atoms: _450  and  _451
REMARK  189  A    between atoms: _450  and  _453
REMARK  190  A    between atoms: _453  and  _454
REMARK  191  A    between atoms: _454  and  _455
REMARK  192  A    between atoms: _457  and  _459
REMARK  193  A    between atoms: _459  and  _460
REMARK  194  A    between atoms: _459  and  _462
REMARK  195  A    between atoms: _462  and  _463
REMARK  196  A    between atoms: _466  and  _468
REMARK  197  A    between atoms: _468  and  _469
REMARK  198  A    between atoms: _468  and  _471
REMARK  199  A    between atoms: _474  and  _476
REMARK  200  A    between atoms: _476  and  _477
REMARK  201  A    between atoms: _476  and  _479
REMARK  202  A    between atoms: _479  and  _480
REMARK  203  A    between atoms: _483  and  _485
REMARK  204  A    between atoms: _485  and  _486
REMARK  205  A    between atoms: _485  and  _488
REMARK  206  A    between atoms: _488  and  _489
REMARK  207  A    between atoms: _492  and  _494
REMARK  208  A    between atoms: _494  and  _495
REMARK  209  A    between atoms: _494  and  _497
REMARK  210  A    between atoms: _497  and  _498
REMARK  211  A    between atoms: _501  and  _503
REMARK  212  A    between atoms: _503  and  _504
REMARK  213  A    between atoms: _503  and  _506
REMARK  214  A    between atoms: _506  and  _507
REMARK  215  A    between atoms: _507  and  _508
REMARK  216  A    between atoms: _511  and  _513
REMARK  217  A    between atoms: _513  and  _514
REMARK  218  A    between atoms: _513  and  _516
REMARK  219  A    between atoms: _516  and  _517
REMARK  220  A    between atoms: _523  and  _525
REMARK  221  A    between atoms: _525  and  _526
REMARK  222  A    between atoms: _525  and  _528
REMARK  223  A    between atoms: _530  and  _532
REMARK  224  A    between atoms: _532  and  _533
REMARK  225  A    between atoms: _532  and  _535
REMARK  226  A    between atoms: _535  and  _536
REMARK  227  A    between atoms: _542  and  _544
REMARK  228  A    between atoms: _544  and  _545
REMARK  229  A    between atoms: _544  and  _547
REMARK  230  A    between atoms: _547  and  _548
REMARK  231  A    between atoms: _553  and  _554
REMARK  232  A    between atoms: _556  and  _558
REMARK  233  A    between atoms: _558  and  _559
REMARK  234  A    between atoms: _558  and  _561
REMARK  235  A    between atoms: _561  and  _562
REMARK  236  A    between atoms: _565  and  _567
REMARK  237  A    between atoms: _567  and  _568
REMARK  238  A    between atoms: _567  and  _570
REMARK  239  A    between atoms: _570  and  _571
REMARK  240  A    between atoms: _577  and  _579
REMARK  241  A    between atoms: _579  and  _580
REMARK  242  A    between atoms: _579  and  _582
REMARK  243  A    between atoms: _582  and  _583
REMARK  244  A    between atoms: _583  and  _584
REMARK  245  A    between atoms: _584  and  _585
REMARK  246  A    between atoms: _594  and  _596
REMARK  247  A    between atoms: _596  and  _597
REMARK  248  A    between atoms: _596  and  _599
REMARK  249  A    between atoms: _599  and  _600
REMARK  250  A    between atoms: _600  and  _601
REMARK  251  A    between atoms: _604  and  _606
REMARK  252  A    between atoms: _606  and  _607
REMARK  253  A    between atoms: _606  and  _609
REMARK  254  A    between atoms: _609  and  _610
REMARK  255  A    between atoms: _612  and  _614
REMARK  256  A    between atoms: _614  and  _615
REMARK  257  A    between atoms: _614  and  _617
REMARK  258  A    between atoms: _617  and  _618
REMARK  259  A    between atoms: _621  and  _623
REMARK  260  A    between atoms: _623  and  _624
REMARK  261  A    between atoms: _623  and  _626
REMARK  262  A    between atoms: _629  and  _631
REMARK  263  A    between atoms: _631  and  _632
REMARK  264  A    between atoms: _631  and  _634
REMARK  265  A    between atoms: _634  and  _635
REMARK  266  A    between atoms: _635  and  _636
REMARK  267  A    between atoms: _639  and  _641
REMARK  268  A    between atoms: _641  and  _642
REMARK  269  A    between atoms: _641  and  _644
REMARK  270  A    between atoms: _644  and  _645
REMARK  271  A    between atoms: _651  and  _653
REMARK  272  A    between atoms: _653  and  _654
REMARK  273  A    between atoms: _653  and  _656
REMARK  274  A    between atoms: _656  and  _657
REMARK  275  A    between atoms: _660  and  _662
REMARK  276  A    between atoms: _662  and  _663
REMARK  277  A    between atoms: _662  and  _665
REMARK  278  A    between atoms: _665  and  _666
REMARK                            x       y       z     vdW  Elec       q    Type
REMARK                         _______ _______ _______ _____ _____    ______ ____
ROOT
ATOM      1  CA  GLU A   2     -27.032  68.706  -1.025  0.00  0.00    +0.149 C 
ENDROOT
BRANCH   1   3
ATOM      2  C   VAL A   1     -28.649  67.108  -0.252  0.00  0.00    +0.238 C 
ATOM      3  N   GLU A   2     -27.827  68.106   0.031  0.00  0.00    -0.297 N 
ATOM      4  H   GLU A   2     -27.751  68.459   1.006  0.00  0.00    +0.150 HD
ATOM      5  O   VAL A   1     -28.769  66.657  -1.389  0.00  0.00    -0.274 OA
BRANCH   2   6
ATOM      6  CA  VAL A   1     -29.468  66.534   0.891  0.00  0.00    +0.145 C 
BRANCH   6   7
ATOM      7  CB  VAL A   1     -29.107  65.043   1.046  0.00  0.00    +0.025 C 
ATOM      8  CG2 VAL A   1     -30.046  64.378   2.029  0.00  0.00    +0.002 C 
ATOM      9  CG1 VAL A   1     -27.673  64.906   1.507  0.00  0.00    +0.002 C 
ENDBRANCH   6   7
BRANCH   6  10
ATOM     10  N   VAL A   1     -30.858  66.713   0.491  0.00  0.00    -0.238 NA
ATOM     11  H   VAL A   1     -31.302  66.003  -0.126  0.00  0.00    +0.142 HD
ENDBRANCH   6  10
ENDBRANCH   2   6
ENDBRANCH   1   3
BRANCH   1  12
ATOM     12  C   GLU A   2     -25.742  67.912  -1.257  0.00  0.00    +0.241 C 
ATOM     13  O   GLU A   2     -25.237  67.246  -0.351  0.00  0.00    -0.273 OA
ATOM     14  N   PHE A   3     -25.230  67.970  -2.482  0.00  0.00    -0.298 N 
ATOM     15  H   PHE A   3     -25.718  68.540  -3.202  0.00  0.00    +0.150 HD
BRANCH  14  16
ATOM     16  CA  PHE A   3     -24.008  67.264  -2.855  0.00  0.00    +0.141 C 
BRANCH  16  17
ATOM     17  C   PHE A   3     -23.061  68.217  -3.563  0.00  0.00    +0.227 C 
ATOM     18  O   PHE A   3     -23.391  68.763  -4.612  0.00  0.00    -0.286 OA
ENDBRANCH  16  17
BRANCH  16  19
ATOM     19  CB  PHE A   3     -24.307  66.098  -3.810  0.00  0.00    +0.054 C 
BRANCH  19  20
ATOM     20  CG  PHE A   3     -25.103  64.979  -3.193  0.00  0.00    -0.020 A 
ATOM     21  CD2 PHE A   3     -26.425  65.174  -2.804  0.00  0.00    -0.004 A 
ATOM     22  CE2 PHE A   3     -27.158  64.141  -2.221  0.00  0.00    -0.000 A 
ATOM     23  CZ  PHE A   3     -26.567  62.893  -2.022  0.00  0.00    -0.000 A 
ATOM     24  CE1 PHE A   3     -25.247  62.684  -2.408  0.00  0.00    -0.000 A 
ATOM     25  CD1 PHE A   3     -24.522  63.726  -2.991  0.00  0.00    -0.004 A 
ENDBRANCH  19  20
ENDBRANCH  16  19
ENDBRANCH  14  16
ENDBRANCH   1  12
BRANCH   1  26
ATOM     26  CB  GLU A   2     -26.727  70.168  -0.679  0.00  0.00    +0.041 C 
BRANCH  26  27
ATOM     27  CG  GLU A   2     -27.160  71.191  -1.753  0.00  0.00    +0.116 C 
BRANCH  27  28
ATOM     28  CD  GLU A   2     -28.664  71.505  -1.761  0.00  0.00    +0.365 C 
ATOM     29  OE2 GLU A   2     -29.393  71.001  -0.879  0.00  0.00    -0.246 OA
ATOM     30  OE1 GLU A   2     -29.112  72.263  -2.655  0.00  0.00    -0.246 OA
ENDBRANCH  27  28
ENDBRANCH  26  27
ENDBRANCH   1  26
TORSDOF 12
REMARK  Name = ../refined-set-2016/2oax/2oax_pocket.pdb
REMARK  278 active torsions:
REMARK  status: ('A' for Active; 'I' for Inactive)
REMARK    1  A    between atoms: _1  and  _3
REMARK    2  A    between atoms: _3  and  _4
REMARK    3  A    between atoms: _7  and  _9
REMARK    4  A    between atoms: _9  and  _10
REMARK    5  A    between atoms: _9  and  _12
REMARK    6  A    between atoms: _12  and  _13
REMARK    7  A    between atoms: _13  and  _14
REMARK    8  A    between atoms: _17  and  _19
REMARK    9  A    between atoms: _19  and  _20
REMARK   10  A    between atoms: _19  and  _22
REMARK   11  A    between atoms: _22  and  _23
REMARK   12  A    between atoms: _26  and  _28
REMARK   13  A    between atoms: _28  and  _29
REMARK   14  A    between atoms: _28  and  _31
REMARK   15  A    between atoms: _31  and  _32
REMARK   16  A    between atoms: _35  and  _37
REMARK   17  A    between atoms: _37  and  _38
REMARK   18  A    between atoms: _37  and  _40
REMARK   19  A    between atoms: _40  and  _41
REMARK   20  A    between atoms: _43  and  _45
REMARK   21  A    between atoms: _45  and  _46
REMARK   22  A    between atoms: _45  and  _48
REMARK   23  A    between atoms: _48  and  _49
REMARK   24  A    between atoms: _52  and  _54
REMARK   25  A    between atoms: _54  and  _55
REMARK   26  A    between atoms: _54  and  _57
REMARK   27  A    between atoms: _57  and  _58
REMARK   28  A    between atoms: _61  and  _63
REMARK   29  A    between atoms: _63  and  _64
REMARK   30  A    between atoms: _63  and  _66
REMARK   31  A    between atoms: _66  and  _67
REMARK   32  A    between atoms: _72  and  _74
REMARK   33  A    between atoms: _74  and  _75
REMARK   34  A    between atoms: _74  and  _77
REMARK   35  A    between atoms: _77  and  _78
REMARK   36  A    between atoms: _78  and  _79
REMARK   37  A    between atoms: _79  and  _80
REMARK   38  A    between atoms: _89  and  _91
REMARK   39  A    between atoms: _91  and  _92
REMARK   40  A    between atoms: _91  and  _94
REMARK   41  A    between atoms: _94  and  _95
REMARK   42  A    between atoms: _98  and  _100
REMARK   43  A    between atoms: _100  and  _101
REMARK   44  A    between atoms: _104  and  _106
REMARK   45  A    between atoms: _106  and  _107
REMARK   46  A    between atoms: _109  and  _111
REMARK   47  A    between atoms: _111  and  _112
REMARK   48  A    between atoms: _111  and  _114
REMARK   49  A    between atoms: _114  and  _115
REMARK   50  A    between atoms: _115  and  _116
REMARK   51  A    between atoms: _116  and  _117
REMARK   52  A    between atoms: _117  and  _118
REMARK   53  A    between atoms: _122  and  _124
REMARK   54  A    between atoms: _124  and  _125
REMARK   55  A    between atoms: _124  and  _127
REMARK   56  A    between atoms: _127  and  _128
REMARK   57  A    between atoms: _128  and  _129
REMARK   58  A    between atoms: _134  and  _136
REMARK   59  A    between atoms: _136  and  _137
REMARK   60  A    between atoms: _136  and  _139
REMARK   61  A    between atoms: _139  and  _140
REMARK   62  A    between atoms: _140  and  _141
REMARK   63  A    between atoms: _143  and  _145
REMARK   64  A    between atoms: _145  and  _146
REMARK   65  A    between atoms: _145  and  _148
REMARK   66  A    between atoms: _148  and  _149
REMARK   67  A    between atoms: _159  and  _161
REMARK   68  A    between atoms: _161  and  _162
REMARK   69  A    between atoms: _161  and  _164
REMARK   70  A    between atoms: _164  and  _165
REMARK   71  A    between atoms: _165  and  _166
REMARK   72  A    between atoms: _168  and  _170
REMARK   73  A    between atoms: _170  and  _171
REMARK   74  A    between atoms: _170  and  _173
REMARK   75  A    between atoms: _175  and  _177
REMARK   76  A    between atoms: _177  and  _178
REMARK   77  A    between atoms: _177  and  _180
REMARK   78  A    between atoms: _180  and  _181
REMARK   79  A    between atoms: _184  and  _186
REMARK   80  A    between atoms: _186  and  _187
REMARK   81  A    between atoms: _186  and  _189
REMARK   82  A    between atoms: _189  and  _190
REMARK   83  A    between atoms: _193  and  _195
REMARK   84  A    between atoms: _195  and  _196
REMARK   85  A    between atoms: _195  and  _198
REMARK   86  A    between atoms: _198  and  _199
REMARK   87  A    between atoms: _201  and  _203
REMARK   88  A    between atoms: _203  and  _204
REMARK   89  A    between atoms: _203  and  _206
REMARK   90  A    between atoms: _206  and  _207
REMARK   91  A    between atoms: _213  and  _215
REMARK   92  A    between atoms: _215  and  _216
REMARK   93  A    between atoms: _219  and  _221
REMARK   94  A    between atoms: _221  and  _222
REMARK   95  A    between atoms: _221  and  _224
REMARK   96  A    between atoms: _224  and  _225
REMARK   97  A    between atoms: _228  and  _230
REMARK   98  A    between atoms: _230  and  _231
REMARK   99  A    between atoms: _230  and  _233
REMARK  100  A    between atoms: _233  and  _234
REMARK  101  A    between atoms: _236  and  _238
REMARK  102  A    between atoms: _238  and  _239
REMARK  103  A    between atoms: _238  and  _241
REMARK  104  A    between atoms: _241  and  _242
REMARK  105  A    between atoms: _252  and  _254
REMARK  106  A    between atoms: _254  and  _255
REMARK  107  A    between atoms: _254  and  _257
REMARK  108  A    between atoms: _257  and  _258
REMARK  109  A    between atoms: _258  and  _259
REMARK  110  A    between atoms: _259  and  _260
REMARK  111  A    between atoms: _269  and  _271
REMARK  112  A    between atoms: _271  and  _272
REMARK  113  A    between atoms: _271  and  _274
REMARK  114  A    between atoms: _274  and  _275
REMARK  115  A    between atoms: _277  and  _279
REMARK  116  A    between atoms: _279  and  _280
REMARK  117  A    between atoms: _279  and  _282
REMARK  118  A    between atoms: _282  and  _283
REMARK  119  A    between atoms: _286  and  _288
REMARK  120  A    between atoms: _288  and  _289
REMARK  121  A    between atoms: _288  and  _291
REMARK  122  A    between atoms: _291  and  _292
REMARK  123  A    between atoms: _297  and  _298
REMARK  124  A    between atoms: _300  and  _302
REMARK  125  A    between atoms: _302  and  _303
REMARK  126  A    between atoms: _302  and  _305
REMARK  127  A    between atoms: _305  and  _306
REMARK  128  A    between atoms: _312  and  _314
REMARK  129  A    between atoms: _314  and  _315
REMARK  130  A    between atoms: _318  and  _320
REMARK  131  A    between atoms: _320  and  _321
REMARK  132  A    between atoms: _320  and  _323
REMARK  133  A    between atoms: _323  and  _324
REMARK  134  A    between atoms: _327  and  _329
REMARK  135  A    between atoms: _329  and  _330
REMARK  136  A    between atoms: _329  and  _332
REMARK  137  A    between atoms: _332  and  _333
REMARK  138  A    between atoms: _339  and  _341
REMARK  139  A    between atoms: _341  and  _342
REMARK  140  A    between atoms: _341  and  _344
REMARK  141  A    between atoms: _344  and  _345
REMARK  142  A    between atoms: _345  and  _346
REMARK  143  A    between atoms: _348  and  _350
REMARK  144  A    between atoms: _350  and  _351
REMARK  145  A    between atoms: _350  and  _353
REMARK  146  A    between atoms: _353  and  _354
REMARK  147  A    between atoms: _356  and  _358
REMARK  148  A    between atoms: _358  and  _359
REMARK  149  A    between atoms: _362  and  _364
REMARK  150  A    between atoms: _364  and  _365
REMARK  151  A    between atoms: _364  and  _367
REMARK  152  A    between atoms: _367  and  _368
REMARK  153  A    between atoms: _368  and  _369
REMARK  154  A    between atoms: _371  and  _373
REMARK  155  A    between atoms: _373  and  _374
REMARK  156  A    between atoms: _373  and  _376
REMARK  157  A    between atoms: _376  and  _377
REMARK  158  A    between atoms: _382  and  _383
REMARK  159  A    between atoms: _385  and  _387
REMARK  160  A    between atoms: _387  and  _388
REMARK  161  A    between atoms: _387  and  _390
REMARK  162  A    between atoms: _390  and  _391
REMARK  163  A    between atoms: _391  and  _392
REMARK  164  A    between atoms: _395  and  _397
REMARK  165  A    between atoms: _397  and  _398
REMARK  166  A    between atoms: _397  and  _400
REMARK  167  A    between atoms: _400  and  _401
REMARK  168  A    between atoms: _404  and  _406
REMARK  169  A    between atoms: _406  and  _407
REMARK  170  A    between atoms: _406  and  _409
REMARK  171  A    between atoms: _411  and  _413
REMARK  172  A    between atoms: _413  and  _414
REMARK  173  A    between atoms: _413  and  _416
REMARK  174  A    between atoms: _416  and  _417
REMARK  175  A    between atoms: _417  and  _418
REMARK  176  A    between atoms: _423  and  _425
REMARK  177  A    between atoms: _425  and  _426
REMARK  178  A    between atoms: _428  and  _430
REMARK  179  A    between atoms: _430  and  _431
REMARK  180  A    between atoms: _430  and  _433
REMARK  181  A    between atoms: _433  and  _434
REMARK  182  A    between atoms: _434  and  _435
REMARK  183  A    between atoms: _437  and  _439
REMARK  184  A    between atoms: _439  and  _440
REMARK  185  A    between atoms: _439  and  _442
REMARK  186  A    between atoms: _442  and  _443
REMARK  187  A    between atoms: _448  and  _450
REMARK  188  A    between atoms: _450  and  _451
REMARK  189  A    between atoms: _450  and  _453
REMARK  190  A    between atoms: _453  and  _454
REMARK  191  A    between atoms: _454  and  _455
REMARK  192  A    between atoms: _457  and  _459
REMARK  193  A    between atoms: _459  and  _460
REMARK  194  A    between atoms: _459  and  _462
REMARK  195  A    between atoms: _462  and  _463
REMARK  196  A    between atoms: _466  and  _468
REMARK  197  A    between atoms: _468  and  _469
REMARK  198  A    between atoms: _468  and  _471
REMARK  199  A    between atoms: _474  and  _476
REMARK  200  A    between atoms: _476  and  _477
REMARK  201  A    between atoms: _476  and  _479
REMARK  202  A    between atoms: _479  and  _480
REMARK  203  A    between atoms: _483  and  _485
REMARK  204  A    between atoms: _485  and  _486
REMARK  205  A    between atoms: _485  and  _488
REMARK  206  A    between atoms: _488  and  _489
REMARK  207  A    between atoms: _492  and  _494
REMARK  208  A    between atoms: _494  and  _495
REMARK  209  A    between atoms: _494  and  _497
REMARK  210  A    between atoms: _497  and  _498
REMARK  211  A    between atoms: _501  and  _503
REMARK  212  A    between atoms: _503  and  _504
REMARK  213  A    between atoms: _503  and  _506
REMARK  214  A    between atoms: _506  and  _507
REMARK  215  A    between atoms: _507  and  _508
REMARK  216  A    between atoms: _511  and  _513
REMARK  217  A    between atoms: _513  and  _514
REMARK  218  A    between atoms: _513  and  _516
REMARK  219  A    between atoms: _516  and  _517
REMARK  220  A    between atoms: _523  and  _525
REMARK  221  A    between atoms: _525  and  _526
REMARK  222  A    between atoms: _525  and  _528
REMARK  223  A    between atoms: _530  and  _532
REMARK  224  A    between atoms: _532  and  _533
REMARK  225  A    between atoms: _532  and  _535
REMARK  226  A    between atoms: _535  and  _536
REMARK  227  A    between atoms: _542  and  _544
REMARK  228  A    between atoms: _544  and  _545
REMARK  229  A    between atoms: _544  and  _547
REMARK  230  A    between atoms: _547  and  _548
REMARK  231  A    between atoms: _553  and  _554
REMARK  232  A    between atoms: _556  and  _558
REMARK  233  A    between atoms: _558  and  _559
REMARK  234  A    between atoms: _558  and  _561
REMARK  235  A    between atoms: _561  and  _562
REMARK  236  A    between atoms: _565  and  _567
REMARK  237  A    between atoms: _567  and  _568
REMARK  238  A    between atoms: _567  and  _570
REMARK  239  A    between atoms: _570  and  _571
REMARK  240  A    between atoms: _577  and  _579
REMARK  241  A    between atoms: _579  and  _580
REMARK  242  A    between atoms: _579  and  _582
REMARK  243  A    between atoms: _582  and  _583
REMARK  244  A    between atoms: _583  and  _584
REMARK  245  A    between atoms: _584  and  _585
REMARK  246  A    between atoms: _594  and  _596
REMARK  247  A    between atoms: _596  and  _597
REMARK  248  A    between atoms: _596  and  _599
REMARK  249  A    between atoms: _599  and  _600
REMARK  250  A    between atoms: _600  and  _601
REMARK  251  A    between atoms: _604  and  _606
REMARK  252  A    between atoms: _606  and  _607
REMARK  253  A    between atoms: _606  and  _609
REMARK  254  A    between atoms: _609  and  _610
REMARK  255  A    between atoms: _612  and  _614
REMARK  256  A    between atoms: _614  and  _615
REMARK  257  A    between atoms: _614  and  _617
REMARK  258  A    between atoms: _617  and  _618
REMARK  259  A    between atoms: _621  and  _623
REMARK  260  A    between atoms: _623  and  _624
REMARK  261  A    between atoms: _623  and  _626
REMARK  262  A    between atoms: _629  and  _631
REMARK  263  A    between atoms: _631  and  _632
REMARK  264  A    between atoms: _631  and  _634
REMARK  265  A    between atoms: _634  and  _635
REMARK  266  A    between atoms: _635  and  _636
REMARK  267  A    between atoms: _639  and  _641
REMARK  268  A    between atoms: _641  and  _642
REMARK  269  A    between atoms: _641  and  _644
REMARK  270  A    between atoms: _644  and  _645
REMARK  271  A    between atoms: _651  and  _653
REMARK  272  A    between atoms: _653  and  _654
REMARK  273  A    between atoms: _653  and  _656
REMARK  274  A    between atoms: _656  and  _657
REMARK  275  A    between atoms: _660  and  _662
REMARK  276  A    between atoms: _662  and  _663
REMARK  277  A    between atoms: _662  and  _665
REMARK  278  A    between atoms: _665  and  _666
REMARK                            x       y       z     vdW  Elec       q    Type
REMARK                         _______ _______ _______ _____ _____    ______ ____
ROOT
ATOM      1  CA  LEU A   1     -19.281  64.371  -5.275  0.00  0.00    +0.133 C 
ENDROOT
BRANCH   1   2
ATOM      2  N   LEU A   1     -18.576  65.628  -5.480  0.00  0.00    -0.239 NA
ATOM      3  H   LEU A   1     -18.766  66.428  -4.844  0.00  0.00    +0.142 HD
ENDBRANCH   1   2
BRANCH   1   4
ATOM      4  C   LEU A   1     -20.193  64.051  -6.449  0.00  0.00    +0.224 C 
ATOM      5  O   LEU A   1     -20.206  62.924  -6.938  0.00  0.00    -0.287 OA
ENDBRANCH   1   4
BRANCH   1   6
ATOM      6  CB  LEU A   1     -20.092  64.416  -3.978  0.00  0.00    +0.025 C 
BRANCH   6   7
ATOM      7  CG  LEU A   1     -19.441  63.717  -2.780  0.00  0.00    +0.002 C 
ATOM      8  CD2 LEU A   1     -20.411  63.708  -1.622  0.00  0.00    +0.000 C 
ATOM      9  CD1 LEU A   1     -18.156  64.427  -2.387  0.00  0.00    +0.000 C 
ENDBRANCH   6   7
ENDBRANCH   1   6
TORSDOF 4
REMARK  Name = ../refined-set-2016/2oax/2oax_pocket.pdb
REMARK  278 active torsions:
REMARK  status: ('A' for Active; 'I' for Inactive)
REMARK    1  A    between atoms: _1  and  _3
REMARK    2  A    between atoms: _3  and  _4
REMARK    3  A    between atoms: _7  and  _9
REMARK    4  A    between atoms: _9  and  _10
REMARK    5  A    between atoms: _9  and  _12
REMARK    6  A    between atoms: _12  and  _13
REMARK    7  A    between atoms: _13  and  _14
REMARK    8  A    between atoms: _17  and  _19
REMARK    9  A    between atoms: _19  and  _20
REMARK   10  A    between atoms: _19  and  _22
REMARK   11  A    between atoms: _22  and  _23
REMARK   12  A    between atoms: _26  and  _28
REMARK   13  A    between atoms: _28  and  _29
REMARK   14  A    between atoms: _28  and  _31
REMARK   15  A    between atoms: _31  and  _32
REMARK   16  A    between atoms: _35  and  _37
REMARK   17  A    between atoms: _37  and  _38
REMARK   18  A    between atoms: _37  and  _40
REMARK   19  A    between atoms: _40  and  _41
REMARK   20  A    between atoms: _43  and  _45
REMARK   21  A    between atoms: _45  and  _46
REMARK   22  A    between atoms: _45  and  _48
REMARK   23  A    between atoms: _48  and  _49
REMARK   24  A    between atoms: _52  and  _54
REMARK   25  A    between atoms: _54  and  _55
REMARK   26  A    between atoms: _54  and  _57
REMARK   27  A    between atoms: _57  and  _58
REMARK   28  A    between atoms: _61  and  _63
REMARK   29  A    between atoms: _63  and  _64
REMARK   30  A    between atoms: _63  and  _66
REMARK   31  A    between atoms: _66  and  _67
REMARK   32  A    between atoms: _72  and  _74
REMARK   33  A    between atoms: _74  and  _75
REMARK   34  A    between atoms: _74  and  _77
REMARK   35  A    between atoms: _77  and  _78
REMARK   36  A    between atoms: _78  and  _79
REMARK   37  A    between atoms: _79  and  _80
REMARK   38  A    between atoms: _89  and  _91
REMARK   39  A    between atoms: _91  and  _92
REMARK   40  A    between atoms: _91  and  _94
REMARK   41  A    between atoms: _94  and  _95
REMARK   42  A    between atoms: _98  and  _100
REMARK   43  A    between atoms: _100  and  _101
REMARK   44  A    between atoms: _104  and  _106
REMARK   45  A    between atoms: _106  and  _107
REMARK   46  A    between atoms: _109  and  _111
REMARK   47  A    between atoms: _111  and  _112
REMARK   48  A    between atoms: _111  and  _114
REMARK   49  A    between atoms: _114  and  _115
REMARK   50  A    between atoms: _115  and  _116
REMARK   51  A    between atoms: _116  and  _117
REMARK   52  A    between atoms: _117  and  _118
REMARK   53  A    between atoms: _122  and  _124
REMARK   54  A    between atoms: _124  and  _125
REMARK   55  A    between atoms: _124  and  _127
REMARK   56  A    between atoms: _127  and  _128
REMARK   57  A    between atoms: _128  and  _129
REMARK   58  A    between atoms: _134  and  _136
REMARK   59  A    between atoms: _136  and  _137
REMARK   60  A    between atoms: _136  and  _139
REMARK   61  A    between atoms: _139  and  _140
REMARK   62  A    between atoms: _140  and  _141
REMARK   63  A    between atoms: _143  and  _145
REMARK   64  A    between atoms: _145  and  _146
REMARK   65  A    between atoms: _145  and  _148
REMARK   66  A    between atoms: _148  and  _149
REMARK   67  A    between atoms: _159  and  _161
REMARK   68  A    between atoms: _161  and  _162
REMARK   69  A    between atoms: _161  and  _164
REMARK   70  A    between atoms: _164  and  _165
REMARK   71  A    between atoms: _165  and  _166
REMARK   72  A    between atoms: _168  and  _170
REMARK   73  A    between atoms: _170  and  _171
REMARK   74  A    between atoms: _170  and  _173
REMARK   75  A    between atoms: _175  and  _177
REMARK   76  A    between atoms: _177  and  _178
REMARK   77  A    between atoms: _177  and  _180
REMARK   78  A    between atoms: _180  and  _181
REMARK   79  A    between atoms: _184  and  _186
REMARK   80  A    between atoms: _186  and  _187
REMARK   81  A    between atoms: _186  and  _189
REMARK   82  A    between atoms: _189  and  _190
REMARK   83  A    between atoms: _193  and  _195
REMARK   84  A    between atoms: _195  and  _196
REMARK   85  A    between atoms: _195  and  _198
REMARK   86  A    between atoms: _198  and  _199
REMARK   87  A    between atoms: _201  and  _203
REMARK   88  A    between atoms: _203  and  _204
REMARK   89  A    between atoms: _203  and  _206
REMARK   90  A    between atoms: _206  and  _207
REMARK   91  A    between atoms: _213  and  _215
REMARK   92  A    between atoms: _215  and  _216
REMARK   93  A    between atoms: _219  and  _221
REMARK   94  A    between atoms: _221  and  _222
REMARK   95  A    between atoms: _221  and  _224
REMARK   96  A    between atoms: _224  and  _225
REMARK   97  A    between atoms: _228  and  _230
REMARK   98  A    between atoms: _230  and  _231
REMARK   99  A    between atoms: _230  and  _233
REMARK  100  A    between atoms: _233  and  _234
REMARK  101  A    between atoms: _236  and  _238
REMARK  102  A    between atoms: _238  and  _239
REMARK  103  A    between atoms: _238  and  _241
REMARK  104  A    between atoms: _241  and  _242
REMARK  105  A    between atoms: _252  and  _254
REMARK  106  A    between atoms: _254  and  _255
REMARK  107  A    between atoms: _254  and  _257
REMARK  108  A    between atoms: _257  and  _258
REMARK  109  A    between atoms: _258  and  _259
REMARK  110  A    between atoms: _259  and  _260
REMARK  111  A    between atoms: _269  and  _271
REMARK  112  A    between atoms: _271  and  _272
REMARK  113  A    between atoms: _271  and  _274
REMARK  114  A    between atoms: _274  and  _275
REMARK  115  A    between atoms: _277  and  _279
REMARK  116  A    between atoms: _279  and  _280
REMARK  117  A    between atoms: _279  and  _282
REMARK  118  A    between atoms: _282  and  _283
REMARK  119  A    between atoms: _286  and  _288
REMARK  120  A    between atoms: _288  and  _289
REMARK  121  A    between atoms: _288  and  _291
REMARK  122  A    between atoms: _291  and  _292
REMARK  123  A    between atoms: _297  and  _298
REMARK  124  A    between atoms: _300  and  _302
REMARK  125  A    between atoms: _302  and  _303
REMARK  126  A    between atoms: _302  and  _305
REMARK  127  A    between atoms: _305  and  _306
REMARK  128  A    between atoms: _312  and  _314
REMARK  129  A    between atoms: _314  and  _315
REMARK  130  A    between atoms: _318  and  _320
REMARK  131  A    between atoms: _320  and  _321
REMARK  132  A    between atoms: _320  and  _323
REMARK  133  A    between atoms: _323  and  _324
REMARK  134  A    between atoms: _327  and  _329
REMARK  135  A    between atoms: _329  and  _330
REMARK  136  A    between atoms: _329  and  _332
REMARK  137  A    between atoms: _332  and  _333
REMARK  138  A    between atoms: _339  and  _341
REMARK  139  A    between atoms: _341  and  _342
REMARK  140  A    between atoms: _341  and  _344
REMARK  141  A    between atoms: _344  and  _345
REMARK  142  A    between atoms: _345  and  _346
REMARK  143  A    between atoms: _348  and  _350
REMARK  144  A    between atoms: _350  and  _351
REMARK  145  A    between atoms: _350  and  _353
REMARK  146  A    between atoms: _353  and  _354
REMARK  147  A    between atoms: _356  and  _358
REMARK  148  A    between atoms: _358  and  _359
REMARK  149  A    between atoms: _362  and  _364
REMARK  150  A    between atoms: _364  and  _365
REMARK  151  A    between atoms: _364  and  _367
REMARK  152  A    between atoms: _367  and  _368
REMARK  153  A    between atoms: _368  and  _369
REMARK  154  A    between atoms: _371  and  _373
REMARK  155  A    between atoms: _373  and  _374
REMARK  156  A    between atoms: _373  and  _376
REMARK  157  A    between atoms: _376  and  _377
REMARK  158  A    between atoms: _382  and  _383
REMARK  159  A    between atoms: _385  and  _387
REMARK  160  A    between atoms: _387  and  _388
REMARK  161  A    between atoms: _387  and  _390
REMARK  162  A    between atoms: _390  and  _391
REMARK  163  A    between atoms: _391  and  _392
REMARK  164  A    between atoms: _395  and  _397
REMARK  165  A    between atoms: _397  and  _398
REMARK  166  A    between atoms: _397  and  _400
REMARK  167  A    between atoms: _400  and  _401
REMARK  168  A    between atoms: _404  and  _406
REMARK  169  A    between atoms: _406  and  _407
REMARK  170  A    between atoms: _406  and  _409
REMARK  171  A    between atoms: _411  and  _413
REMARK  172  A    between atoms: _413  and  _414
REMARK  173  A    between atoms: _413  and  _416
REMARK  174  A    between atoms: _416  and  _417
REMARK  175  A    between atoms: _417  and  _418
REMARK  176  A    between atoms: _423  and  _425
REMARK  177  A    between atoms: _425  and  _426
REMARK  178  A    between atoms: _428  and  _430
REMARK  179  A    between atoms: _430  and  _431
REMARK  180  A    between atoms: _430  and  _433
REMARK  181  A    between atoms: _433  and  _434
REMARK  182  A    between atoms: _434  and  _435
REMARK  183  A    between atoms: _437  and  _439
REMARK  184  A    between atoms: _439  and  _440
REMARK  185  A    between atoms: _439  and  _442
REMARK  186  A    between atoms: _442  and  _443
REMARK  187  A    between atoms: _448  and  _450
REMARK  188  A    between atoms: _450  and  _451
REMARK  189  A    between atoms: _450  and  _453
REMARK  190  A    between atoms: _453  and  _454
REMARK  191  A    between atoms: _454  and  _455
REMARK  192  A    between atoms: _457  and  _459
REMARK  193  A    between atoms: _459  and  _460
REMARK  194  A    between atoms: _459  and  _462
REMARK  195  A    between atoms: _462  and  _463
REMARK  196  A    between atoms: _466  and  _468
REMARK  197  A    between atoms: _468  and  _469
REMARK  198  A    between atoms: _468  and  _471
REMARK  199  A    between atoms: _474  and  _476
REMARK  200  A    between atoms: _476  and  _477
REMARK  201  A    between atoms: _476  and  _479
REMARK  202  A    between atoms: _479  and  _480
REMARK  203  A    between atoms: _483  and  _485
REMARK  204  A    between atoms: _485  and  _486
REMARK  205  A    between atoms: _485  and  _488
REMARK  206  A    between atoms: _488  and  _489
REMARK  207  A    between atoms: _492  and  _494
REMARK  208  A    between atoms: _494  and  _495
REMARK  209  A    between atoms: _494  and  _497
REMARK  210  A    between atoms: _497  and  _498
REMARK  211  A    between atoms: _501  and  _503
REMARK  212  A    between atoms: _503  and  _504
REMARK  213  A    between atoms: _503  and  _506
REMARK  214  A    between atoms: _506  and  _507
REMARK  215  A    between atoms: _507  and  _508
REMARK  216  A    between atoms: _511  and  _513
REMARK  217  A    between atoms: _513  and  _514
REMARK  218  A    between atoms: _513  and  _516
REMARK  219  A    between atoms: _516  and  _517
REMARK  220  A    between atoms: _523  and  _525
REMARK  221  A    between atoms: _525  and  _526
REMARK  222  A    between atoms: _525  and  _528
REMARK  223  A    between atoms: _530  and  _532
REMARK  224  A    between atoms: _532  and  _533
REMARK  225  A    between atoms: _532  and  _535
REMARK  226  A    between atoms: _535  and  _536
REMARK  227  A    between atoms: _542  and  _544
REMARK  228  A    between atoms: _544  and  _545
REMARK  229  A    between atoms: _544  and  _547
REMARK  230  A    between atoms: _547  and  _548
REMARK  231  A    between atoms: _553  and  _554
REMARK  232  A    between atoms: _556  and  _558
REMARK  233  A    between atoms: _558  and  _559
REMARK  234  A    between atoms: _558  and  _561
REMARK  235  A    between atoms: _561  and  _562
REMARK  236  A    between atoms: _565  and  _567
REMARK  237  A    between atoms: _567  and  _568
REMARK  238  A    between atoms: _567  and  _570
REMARK  239  A    between atoms: _570  and  _571
REMARK  240  A    between atoms: _577  and  _579
REMARK  241  A    between atoms: _579  and  _580
REMARK  242  A    between atoms: _579  and  _582
REMARK  243  A    between atoms: _582  and  _583
REMARK  244  A    between atoms: _583  and  _584
REMARK  245  A    between atoms: _584  and  _585
REMARK  246  A    between atoms: _594  and  _596
REMARK  247  A    between atoms: _596  and  _597
REMARK  248  A    between atoms: _596  and  _599
REMARK  249  A    between atoms: _599  and  _600
REMARK  250  A    between atoms: _600  and  _601
REMARK  251  A    between atoms: _604  and  _606
REMARK  252  A    between atoms: _606  and  _607
REMARK  253  A    between atoms: _606  and  _609
REMARK  254  A    between atoms: _609  and  _610
REMARK  255  A    between atoms: _612  and  _614
REMARK  256  A    between atoms: _614  and  _615
REMARK  257  A    between atoms: _614  and  _617
REMARK  258  A    between atoms: _617  and  _618
REMARK  259  A    between atoms: _621  and  _623
REMARK  260  A    between atoms: _623  and  _624
REMARK  261  A    between atoms: _623  and  _626
REMARK  262  A    between atoms: _629  and  _631
REMARK  263  A    between atoms: _631  and  _632
REMARK  264  A    between atoms: _631  and  _634
REMARK  265  A    between atoms: _634  and  _635
REMARK  266  A    between atoms: _635  and  _636
REMARK  267  A    between atoms: _639  and  _641
REMARK  268  A    between atoms: _641  and  _642
REMARK  269  A    between atoms: _641  and  _644
REMARK  270  A    between atoms: _644  and  _645
REMARK  271  A    between atoms: _651  and  _653
REMARK  272  A    between atoms: _653  and  _654
REMARK  273  A    between atoms: _653  and  _656
REMARK  274  A    between atoms: _656  and  _657
REMARK  275  A    between atoms: _660  and  _662
REMARK  276  A    between atoms: _662  and  _663
REMARK  277  A    between atoms: _662  and  _665
REMARK  278  A    between atoms: _665  and  _666
REMARK                            x       y       z     vdW  Elec       q    Type
REMARK                         _______ _______ _______ _____ _____    ______ ____
ROOT
ATOM      1  CA  ILE A   1     -21.020  59.597  -7.948  0.00  0.00    +0.133 C 
ENDROOT
BRANCH   1   2
ATOM      2  N   ILE A   1     -19.881  60.499  -8.071  0.00  0.00    -0.239 NA
ATOM      3  H   ILE A   1     -19.885  61.402  -7.555  0.00  0.00    +0.142 HD
ENDBRANCH   1   2
BRANCH   1   4
ATOM      4  CB  ILE A   1     -22.093  60.168  -6.994  0.00  0.00    +0.023 C 
ATOM      5  CG2 ILE A   1     -23.255  59.201  -6.885  0.00  0.00    +0.002 C 
BRANCH   4   6
ATOM      6  CG1 ILE A   1     -21.482  60.406  -5.613  0.00  0.00    +0.002 C 
ATOM      7  CD1 ILE A   1     -22.393  61.118  -4.657  0.00  0.00    +0.000 C 
ENDBRANCH   4   6
ENDBRANCH   1   4
BRANCH   1   8
ATOM      8  C   ILE A   1     -21.664  59.328  -9.302  0.00  0.00    +0.224 C 
ATOM      9  O   ILE A   1     -21.799  58.176  -9.709  0.00  0.00    -0.287 OA
ENDBRANCH   1   8
TORSDOF 4
REMARK  Name = ../refined-set-2016/2oax/2oax_pocket.pdb
REMARK  278 active torsions:
REMARK  status: ('A' for Active; 'I' for Inactive)
REMARK    1  A    between atoms: _1  and  _3
REMARK    2  A    between atoms: _3  and  _4
REMARK    3  A    between atoms: _7  and  _9
REMARK    4  A    between atoms: _9  and  _10
REMARK    5  A    between atoms: _9  and  _12
REMARK    6  A    between atoms: _12  and  _13
REMARK    7  A    between atoms: _13  and  _14
REMARK    8  A    between atoms: _17  and  _19
REMARK    9  A    between atoms: _19  and  _20
REMARK   10  A    between atoms: _19  and  _22
REMARK   11  A    between atoms: _22  and  _23
REMARK   12  A    between atoms: _26  and  _28
REMARK   13  A    between atoms: _28  and  _29
REMARK   14  A    between atoms: _28  and  _31
REMARK   15  A    between atoms: _31  and  _32
REMARK   16  A    between atoms: _35  and  _37
REMARK   17  A    between atoms: _37  and  _38
REMARK   18  A    between atoms: _37  and  _40
REMARK   19  A    between atoms: _40  and  _41
REMARK   20  A    between atoms: _43  and  _45
REMARK   21  A    between atoms: _45  and  _46
REMARK   22  A    between atoms: _45  and  _48
REMARK   23  A    between atoms: _48  and  _49
REMARK   24  A    between atoms: _52  and  _54
REMARK   25  A    between atoms: _54  and  _55
REMARK   26  A    between atoms: _54  and  _57
REMARK   27  A    between atoms: _57  and  _58
REMARK   28  A    between atoms: _61  and  _63
REMARK   29  A    between atoms: _63  and  _64
REMARK   30  A    between atoms: _63  and  _66
REMARK   31  A    between atoms: _66  and  _67
REMARK   32  A    between atoms: _72  and  _74
REMARK   33  A    between atoms: _74  and  _75
REMARK   34  A    between atoms: _74  and  _77
REMARK   35  A    between atoms: _77  and  _78
REMARK   36  A    between atoms: _78  and  _79
REMARK   37  A    between atoms: _79  and  _80
REMARK   38  A    between atoms: _89  and  _91
REMARK   39  A    between atoms: _91  and  _92
REMARK   40  A    between atoms: _91  and  _94
REMARK   41  A    between atoms: _94  and  _95
REMARK   42  A    between atoms: _98  and  _100
REMARK   43  A    between atoms: _100  and  _101
REMARK   44  A    between atoms: _104  and  _106
REMARK   45  A    between atoms: _106  and  _107
REMARK   46  A    between atoms: _109  and  _111
REMARK   47  A    between atoms: _111  and  _112
REMARK   48  A    between atoms: _111  and  _114
REMARK   49  A    between atoms: _114  and  _115
REMARK   50  A    between atoms: _115  and  _116
REMARK   51  A    between atoms: _116  and  _117
REMARK   52  A    between atoms: _117  and  _118
REMARK   53  A    between atoms: _122  and  _124
REMARK   54  A    between atoms: _124  and  _125
REMARK   55  A    between atoms: _124  and  _127
REMARK   56  A    between atoms: _127  and  _128
REMARK   57  A    between atoms: _128  and  _129
REMARK   58  A    between atoms: _134  and  _136
REMARK   59  A    between atoms: _136  and  _137
REMARK   60  A    between atoms: _136  and  _139
REMARK   61  A    between atoms: _139  and  _140
REMARK   62  A    between atoms: _140  and  _141
REMARK   63  A    between atoms: _143  and  _145
REMARK   64  A    between atoms: _145  and  _146
REMARK   65  A    between atoms: _145  and  _148
REMARK   66  A    between atoms: _148  and  _149
REMARK   67  A    between atoms: _159  and  _161
REMARK   68  A    between atoms: _161  and  _162
REMARK   69  A    between atoms: _161  and  _164
REMARK   70  A    between atoms: _164  and  _165
REMARK   71  A    between atoms: _165  and  _166
REMARK   72  A    between atoms: _168  and  _170
REMARK   73  A    between atoms: _170  and  _171
REMARK   74  A    between atoms: _170  and  _173
REMARK   75  A    between atoms: _175  and  _177
REMARK   76  A    between atoms: _177  and  _178
REMARK   77  A    between atoms: _177  and  _180
REMARK   78  A    between atoms: _180  and  _181
REMARK   79  A    between atoms: _184  and  _186
REMARK   80  A    between atoms: _186  and  _187
REMARK   81  A    between atoms: _186  and  _189
REMARK   82  A    between atoms: _189  and  _190
REMARK   83  A    between atoms: _193  and  _195
REMARK   84  A    between atoms: _195  and  _196
REMARK   85  A    between atoms: _195  and  _198
REMARK   86  A    between atoms: _198  and  _199
REMARK   87  A    between atoms: _201  and  _203
REMARK   88  A    between atoms: _203  and  _204
REMARK   89  A    between atoms: _203  and  _206
REMARK   90  A    between atoms: _206  and  _207
REMARK   91  A    between atoms: _213  and  _215
REMARK   92  A    between atoms: _215  and  _216
REMARK   93  A    between atoms: _219  and  _221
REMARK   94  A    between atoms: _221  and  _222
REMARK   95  A    between atoms: _221  and  _224
REMARK   96  A    between atoms: _224  and  _225
REMARK   97  A    between atoms: _228  and  _230
REMARK   98  A    between atoms: _230  and  _231
REMARK   99  A    between atoms: _230  and  _233
REMARK  100  A    between atoms: _233  and  _234
REMARK  101  A    between atoms: _236  and  _238
REMARK  102  A    between atoms: _238  and  _239
REMARK  103  A    between atoms: _238  and  _241
REMARK  104  A    between atoms: _241  and  _242
REMARK  105  A    between atoms: _252  and  _254
REMARK  106  A    between atoms: _254  and  _255
REMARK  107  A    between atoms: _254  and  _257
REMARK  108  A    between atoms: _257  and  _258
REMARK  109  A    between atoms: _258  and  _259
REMARK  110  A    between atoms: _259  and  _260
REMARK  111  A    between atoms: _269  and  _271
REMARK  112  A    between atoms: _271  and  _272
REMARK  113  A    between atoms: _271  and  _274
REMARK  114  A    between atoms: _274  and  _275
REMARK  115  A    between atoms: _277  and  _279
REMARK  116  A    between atoms: _279  and  _280
REMARK  117  A    between atoms: _279  and  _282
REMARK  118  A    between atoms: _282  and  _283
REMARK  119  A    between atoms: _286  and  _288
REMARK  120  A    between atoms: _288  and  _289
REMARK  121  A    between atoms: _288  and  _291
REMARK  122  A    between atoms: _291  and  _292
REMARK  123  A    between atoms: _297  and  _298
REMARK  124  A    between atoms: _300  and  _302
REMARK  125  A    between atoms: _302  and  _303
REMARK  126  A    between atoms: _302  and  _305
REMARK  127  A    between atoms: _305  and  _306
REMARK  128  A    between atoms: _312  and  _314
REMARK  129  A    between atoms: _314  and  _315
REMARK  130  A    between atoms: _318  and  _320
REMARK  131  A    between atoms: _320  and  _321
REMARK  132  A    between atoms: _320  and  _323
REMARK  133  A    between atoms: _323  and  _324
REMARK  134  A    between atoms: _327  and  _329
REMARK  135  A    between atoms: _329  and  _330
REMARK  136  A    between atoms: _329  and  _332
REMARK  137  A    between atoms: _332  and  _333
REMARK  138  A    between atoms: _339  and  _341
REMARK  139  A    between atoms: _341  and  _342
REMARK  140  A    between atoms: _341  and  _344
REMARK  141  A    between atoms: _344  and  _345
REMARK  142  A    between atoms: _345  and  _346
REMARK  143  A    between atoms: _348  and  _350
REMARK  144  A    between atoms: _350  and  _351
REMARK  145  A    between atoms: _350  and  _353
REMARK  146  A    between atoms: _353  and  _354
REMARK  147  A    between atoms: _356  and  _358
REMARK  148  A    between atoms: _358  and  _359
REMARK  149  A    between atoms: _362  and  _364
REMARK  150  A    between atoms: _364  and  _365
REMARK  151  A    between atoms: _364  and  _367
REMARK  152  A    between atoms: _367  and  _368
REMARK  153  A    between atoms: _368  and  _369
REMARK  154  A    between atoms: _371  and  _373
REMARK  155  A    between atoms: _373  and  _374
REMARK  156  A    between atoms: _373  and  _376
REMARK  157  A    between atoms: _376  and  _377
REMARK  158  A    between atoms: _382  and  _383
REMARK  159  A    between atoms: _385  and  _387
REMARK  160  A    between atoms: _387  and  _388
REMARK  161  A    between atoms: _387  and  _390
REMARK  162  A    between atoms: _390  and  _391
REMARK  163  A    between atoms: _391  and  _392
REMARK  164  A    between atoms: _395  and  _397
REMARK  165  A    between atoms: _397  and  _398
REMARK  166  A    between atoms: _397  and  _400
REMARK  167  A    between atoms: _400  and  _401
REMARK  168  A    between atoms: _404  and  _406
REMARK  169  A    between atoms: _406  and  _407
REMARK  170  A    between atoms: _406  and  _409
REMARK  171  A    between atoms: _411  and  _413
REMARK  172  A    between atoms: _413  and  _414
REMARK  173  A    between atoms: _413  and  _416
REMARK  174  A    between atoms: _416  and  _417
REMARK  175  A    between atoms: _417  and  _418
REMARK  176  A    between atoms: _423  and  _425
REMARK  177  A    between atoms: _425  and  _426
REMARK  178  A    between atoms: _428  and  _430
REMARK  179  A    between atoms: _430  and  _431
REMARK  180  A    between atoms: _430  and  _433
REMARK  181  A    between atoms: _433  and  _434
REMARK  182  A    between atoms: _434  and  _435
REMARK  183  A    between atoms: _437  and  _439
REMARK  184  A    between atoms: _439  and  _440
REMARK  185  A    between atoms: _439  and  _442
REMARK  186  A    between atoms: _442  and  _443
REMARK  187  A    between atoms: _448  and  _450
REMARK  188  A    between atoms: _450  and  _451
REMARK  189  A    between atoms: _450  and  _453
REMARK  190  A    between atoms: _453  and  _454
REMARK  191  A    between atoms: _454  and  _455
REMARK  192  A    between atoms: _457  and  _459
REMARK  193  A    between atoms: _459  and  _460
REMARK  194  A    between atoms: _459  and  _462
REMARK  195  A    between atoms: _462  and  _463
REMARK  196  A    between atoms: _466  and  _468
REMARK  197  A    between atoms: _468  and  _469
REMARK  198  A    between atoms: _468  and  _471
REMARK  199  A    between atoms: _474  and  _476
REMARK  200  A    between atoms: _476  and  _477
REMARK  201  A    between atoms: _476  and  _479
REMARK  202  A    between atoms: _479  and  _480
REMARK  203  A    between atoms: _483  and  _485
REMARK  204  A    between atoms: _485  and  _486
REMARK  205  A    between atoms: _485  and  _488
REMARK  206  A    between atoms: _488  and  _489
REMARK  207  A    between atoms: _492  and  _494
REMARK  208  A    between atoms: _494  and  _495
REMARK  209  A    between atoms: _494  and  _497
REMARK  210  A    between atoms: _497  and  _498
REMARK  211  A    between atoms: _501  and  _503
REMARK  212  A    between atoms: _503  and  _504
REMARK  213  A    between atoms: _503  and  _506
REMARK  214  A    between atoms: _506  and  _507
REMARK  215  A    between atoms: _507  and  _508
REMARK  216  A    between atoms: _511  and  _513
REMARK  217  A    between atoms: _513  and  _514
REMARK  218  A    between atoms: _513  and  _516
REMARK  219  A    between atoms: _516  and  _517
REMARK  220  A    between atoms: _523  and  _525
REMARK  221  A    between atoms: _525  and  _526
REMARK  222  A    between atoms: _525  and  _528
REMARK  223  A    between atoms: _530  and  _532
REMARK  224  A    between atoms: _532  and  _533
REMARK  225  A    between atoms: _532  and  _535
REMARK  226  A    between atoms: _535  and  _536
REMARK  227  A    between atoms: _542  and  _544
REMARK  228  A    between atoms: _544  and  _545
REMARK  229  A    between atoms: _544  and  _547
REMARK  230  A    between atoms: _547  and  _548
REMARK  231  A    between atoms: _553  and  _554
REMARK  232  A    between atoms: _556  and  _558
REMARK  233  A    between atoms: _558  and  _559
REMARK  234  A    between atoms: _558  and  _561
REMARK  235  A    between atoms: _561  and  _562
REMARK  236  A    between atoms: _565  and  _567
REMARK  237  A    between atoms: _567  and  _568
REMARK  238  A    between atoms: _567  and  _570
REMARK  239  A    between atoms: _570  and  _571
REMARK  240  A    between atoms: _577  and  _579
REMARK  241  A    between atoms: _579  and  _580
REMARK  242  A    between atoms: _579  and  _582
REMARK  243  A    between atoms: _582  and  _583
REMARK  244  A    between atoms: _583  and  _584
REMARK  245  A    between atoms: _584  and  _585
REMARK  246  A    between atoms: _594  and  _596
REMARK  247  A    between atoms: _596  and  _597
REMARK  248  A    between atoms: _596  and  _599
REMARK  249  A    between atoms: _599  and  _600
REMARK  250  A    between atoms: _600  and  _601
REMARK  251  A    between atoms: _604  and  _606
REMARK  252  A    between atoms: _606  and  _607
REMARK  253  A    between atoms: _606  and  _609
REMARK  254  A    between atoms: _609  and  _610
REMARK  255  A    between atoms: _612  and  _614
REMARK  256  A    between atoms: _614  and  _615
REMARK  257  A    between atoms: _614  and  _617
REMARK  258  A    between atoms: _617  and  _618
REMARK  259  A    between atoms: _621  and  _623
REMARK  260  A    between atoms: _623  and  _624
REMARK  261  A    between atoms: _623  and  _626
REMARK  262  A    between atoms: _629  and  _631
REMARK  263  A    between atoms: _631  and  _632
REMARK  264  A    between atoms: _631  and  _634
REMARK  265  A    between atoms: _634  and  _635
REMARK  266  A    between atoms: _635  and  _636
REMARK  267  A    between atoms: _639  and  _641
REMARK  268  A    between atoms: _641  and  _642
REMARK  269  A    between atoms: _641  and  _644
REMARK  270  A    between atoms: _644  and  _645
REMARK  271  A    between atoms: _651  and  _653
REMARK  272  A    between atoms: _653  and  _654
REMARK  273  A    between atoms: _653  and  _656
REMARK  274  A    between atoms: _656  and  _657
REMARK  275  A    between atoms: _660  and  _662
REMARK  276  A    between atoms: _662  and  _663
REMARK  277  A    between atoms: _662  and  _665
REMARK  278  A    between atoms: _665  and  _666
REMARK                            x       y       z     vdW  Elec       q    Type
REMARK                         _______ _______ _______ _____ _____    ______ ____
ROOT
ATOM      1  O   HOH     1     -12.026  61.799   5.828  0.00  0.00    +0.000 OA
ENDROOT
TORSDOF 0
REMARK  Name = ../refined-set-2016/2oax/2oax_pocket.pdb
REMARK  278 active torsions:
REMARK  status: ('A' for Active; 'I' for Inactive)
REMARK    1  A    between atoms: _1  and  _3
REMARK    2  A    between atoms: _3  and  _4
REMARK    3  A    between atoms: _7  and  _9
REMARK    4  A    between atoms: _9  and  _10
REMARK    5  A    between atoms: _9  and  _12
REMARK    6  A    between atoms: _12  and  _13
REMARK    7  A    between atoms: _13  and  _14
REMARK    8  A    between atoms: _17  and  _19
REMARK    9  A    between atoms: _19  and  _20
REMARK   10  A    between atoms: _19  and  _22
REMARK   11  A    between atoms: _22  and  _23
REMARK   12  A    between atoms: _26  and  _28
REMARK   13  A    between atoms: _28  and  _29
REMARK   14  A    between atoms: _28  and  _31
REMARK   15  A    between atoms: _31  and  _32
REMARK   16  A    between atoms: _35  and  _37
REMARK   17  A    between atoms: _37  and  _38
REMARK   18  A    between atoms: _37  and  _40
REMARK   19  A    between atoms: _40  and  _41
REMARK   20  A    between atoms: _43  and  _45
REMARK   21  A    between atoms: _45  and  _46
REMARK   22  A    between atoms: _45  and  _48
REMARK   23  A    between atoms: _48  and  _49
REMARK   24  A    between atoms: _52  and  _54
REMARK   25  A    between atoms: _54  and  _55
REMARK   26  A    between atoms: _54  and  _57
REMARK   27  A    between atoms: _57  and  _58
REMARK   28  A    between atoms: _61  and  _63
REMARK   29  A    between atoms: _63  and  _64
REMARK   30  A    between atoms: _63  and  _66
REMARK   31  A    between atoms: _66  and  _67
REMARK   32  A    between atoms: _72  and  _74
REMARK   33  A    between atoms: _74  and  _75
REMARK   34  A    between atoms: _74  and  _77
REMARK   35  A    between atoms: _77  and  _78
REMARK   36  A    between atoms: _78  and  _79
REMARK   37  A    between atoms: _79  and  _80
REMARK   38  A    between atoms: _89  and  _91
REMARK   39  A    between atoms: _91  and  _92
REMARK   40  A    between atoms: _91  and  _94
REMARK   41  A    between atoms: _94  and  _95
REMARK   42  A    between atoms: _98  and  _100
REMARK   43  A    between atoms: _100  and  _101
REMARK   44  A    between atoms: _104  and  _106
REMARK   45  A    between atoms: _106  and  _107
REMARK   46  A    between atoms: _109  and  _111
REMARK   47  A    between atoms: _111  and  _112
REMARK   48  A    between atoms: _111  and  _114
REMARK   49  A    between atoms: _114  and  _115
REMARK   50  A    between atoms: _115  and  _116
REMARK   51  A    between atoms: _116  and  _117
REMARK   52  A    between atoms: _117  and  _118
REMARK   53  A    between atoms: _122  and  _124
REMARK   54  A    between atoms: _124  and  _125
REMARK   55  A    between atoms: _124  and  _127
REMARK   56  A    between atoms: _127  and  _128
REMARK   57  A    between atoms: _128  and  _129
REMARK   58  A    between atoms: _134  and  _136
REMARK   59  A    between atoms: _136  and  _137
REMARK   60  A    between atoms: _136  and  _139
REMARK   61  A    between atoms: _139  and  _140
REMARK   62  A    between atoms: _140  and  _141
REMARK   63  A    between atoms: _143  and  _145
REMARK   64  A    between atoms: _145  and  _146
REMARK   65  A    between atoms: _145  and  _148
REMARK   66  A    between atoms: _148  and  _149
REMARK   67  A    between atoms: _159  and  _161
REMARK   68  A    between atoms: _161  and  _162
REMARK   69  A    between atoms: _161  and  _164
REMARK   70  A    between atoms: _164  and  _165
REMARK   71  A    between atoms: _165  and  _166
REMARK   72  A    between atoms: _168  and  _170
REMARK   73  A    between atoms: _170  and  _171
REMARK   74  A    between atoms: _170  and  _173
REMARK   75  A    between atoms: _175  and  _177
REMARK   76  A    between atoms: _177  and  _178
REMARK   77  A    between atoms: _177  and  _180
REMARK   78  A    between atoms: _180  and  _181
REMARK   79  A    between atoms: _184  and  _186
REMARK   80  A    between atoms: _186  and  _187
REMARK   81  A    between atoms: _186  and  _189
REMARK   82  A    between atoms: _189  and  _190
REMARK   83  A    between atoms: _193  and  _195
REMARK   84  A    between atoms: _195  and  _196
REMARK   85  A    between atoms: _195  and  _198
REMARK   86  A    between atoms: _198  and  _199
REMARK   87  A    between atoms: _201  and  _203
REMARK   88  A    between atoms: _203  and  _204
REMARK   89  A    between atoms: _203  and  _206
REMARK   90  A    between atoms: _206  and  _207
REMARK   91  A    between atoms: _213  and  _215
REMARK   92  A    between atoms: _215  and  _216
REMARK   93  A    between atoms: _219  and  _221
REMARK   94  A    between atoms: _221  and  _222
REMARK   95  A    between atoms: _221  and  _224
REMARK   96  A    between atoms: _224  and  _225
REMARK   97  A    between atoms: _228  and  _230
REMARK   98  A    between atoms: _230  and  _231
REMARK   99  A    between atoms: _230  and  _233
REMARK  100  A    between atoms: _233  and  _234
REMARK  101  A    between atoms: _236  and  _238
REMARK  102  A    between atoms: _238  and  _239
REMARK  103  A    between atoms: _238  and  _241
REMARK  104  A    between atoms: _241  and  _242
REMARK  105  A    between atoms: _252  and  _254
REMARK  106  A    between atoms: _254  and  _255
REMARK  107  A    between atoms: _254  and  _257
REMARK  108  A    between atoms: _257  and  _258
REMARK  109  A    between atoms: _258  and  _259
REMARK  110  A    between atoms: _259  and  _260
REMARK  111  A    between atoms: _269  and  _271
REMARK  112  A    between atoms: _271  and  _272
REMARK  113  A    between atoms: _271  and  _274
REMARK  114  A    between atoms: _274  and  _275
REMARK  115  A    between atoms: _277  and  _279
REMARK  116  A    between atoms: _279  and  _280
REMARK  117  A    between atoms: _279  and  _282
REMARK  118  A    between atoms: _282  and  _283
REMARK  119  A    between atoms: _286  and  _288
REMARK  120  A    between atoms: _288  and  _289
REMARK  121  A    between atoms: _288  and  _291
REMARK  122  A    between atoms: _291  and  _292
REMARK  123  A    between atoms: _297  and  _298
REMARK  124  A    between atoms: _300  and  _302
REMARK  125  A    between atoms: _302  and  _303
REMARK  126  A    between atoms: _302  and  _305
REMARK  127  A    between atoms: _305  and  _306
REMARK  128  A    between atoms: _312  and  _314
REMARK  129  A    between atoms: _314  and  _315
REMARK  130  A    between atoms: _318  and  _320
REMARK  131  A    between atoms: _320  and  _321
REMARK  132  A    between atoms: _320  and  _323
REMARK  133  A    between atoms: _323  and  _324
REMARK  134  A    between atoms: _327  and  _329
REMARK  135  A    between atoms: _329  and  _330
REMARK  136  A    between atoms: _329  and  _332
REMARK  137  A    between atoms: _332  and  _333
REMARK  138  A    between atoms: _339  and  _341
REMARK  139  A    between atoms: _341  and  _342
REMARK  140  A    between atoms: _341  and  _344
REMARK  141  A    between atoms: _344  and  _345
REMARK  142  A    between atoms: _345  and  _346
REMARK  143  A    between atoms: _348  and  _350
REMARK  144  A    between atoms: _350  and  _351
REMARK  145  A    between atoms: _350  and  _353
REMARK  146  A    between atoms: _353  and  _354
REMARK  147  A    between atoms: _356  and  _358
REMARK  148  A    between atoms: _358  and  _359
REMARK  149  A    between atoms: _362  and  _364
REMARK  150  A    between atoms: _364  and  _365
REMARK  151  A    between atoms: _364  and  _367
REMARK  152  A    between atoms: _367  and  _368
REMARK  153  A    between atoms: _368  and  _369
REMARK  154  A    between atoms: _371  and  _373
REMARK  155  A    between atoms: _373  and  _374
REMARK  156  A    between atoms: _373  and  _376
REMARK  157  A    between atoms: _376  and  _377
REMARK  158  A    between atoms: _382  and  _383
REMARK  159  A    between atoms: _385  and  _387
REMARK  160  A    between atoms: _387  and  _388
REMARK  161  A    between atoms: _387  and  _390
REMARK  162  A    between atoms: _390  and  _391
REMARK  163  A    between atoms: _391  and  _392
REMARK  164  A    between atoms: _395  and  _397
REMARK  165  A    between atoms: _397  and  _398
REMARK  166  A    between atoms: _397  and  _400
REMARK  167  A    between atoms: _400  and  _401
REMARK  168  A    between atoms: _404  and  _406
REMARK  169  A    between atoms: _406  and  _407
REMARK  170  A    between atoms: _406  and  _409
REMARK  171  A    between atoms: _411  and  _413
REMARK  172  A    between atoms: _413  and  _414
REMARK  173  A    between atoms: _413  and  _416
REMARK  174  A    between atoms: _416  and  _417
REMARK  175  A    between atoms: _417  and  _418
REMARK  176  A    between atoms: _423  and  _425
REMARK  177  A    between atoms: _425  and  _426
REMARK  178  A    between atoms: _428  and  _430
REMARK  179  A    between atoms: _430  and  _431
REMARK  180  A    between atoms: _430  and  _433
REMARK  181  A    between atoms: _433  and  _434
REMARK  182  A    between atoms: _434  and  _435
REMARK  183  A    between atoms: _437  and  _439
REMARK  184  A    between atoms: _439  and  _440
REMARK  185  A    between atoms: _439  and  _442
REMARK  186  A    between atoms: _442  and  _443
REMARK  187  A    between atoms: _448  and  _450
REMARK  188  A    between atoms: _450  and  _451
REMARK  189  A    between atoms: _450  and  _453
REMARK  190  A    between atoms: _453  and  _454
REMARK  191  A    between atoms: _454  and  _455
REMARK  192  A    between atoms: _457  and  _459
REMARK  193  A    between atoms: _459  and  _460
REMARK  194  A    between atoms: _459  and  _462
REMARK  195  A    between atoms: _462  and  _463
REMARK  196  A    between atoms: _466  and  _468
REMARK  197  A    between atoms: _468  and  _469
REMARK  198  A    between atoms: _468  and  _471
REMARK  199  A    between atoms: _474  and  _476
REMARK  200  A    between atoms: _476  and  _477
REMARK  201  A    between atoms: _476  and  _479
REMARK  202  A    between atoms: _479  and  _480
REMARK  203  A    between atoms: _483  and  _485
REMARK  204  A    between atoms: _485  and  _486
REMARK  205  A    between atoms: _485  and  _488
REMARK  206  A    between atoms: _488  and  _489
REMARK  207  A    between atoms: _492  and  _494
REMARK  208  A    between atoms: _494  and  _495
REMARK  209  A    between atoms: _494  and  _497
REMARK  210  A    between atoms: _497  and  _498
REMARK  211  A    between atoms: _501  and  _503
REMARK  212  A    between atoms: _503  and  _504
REMARK  213  A    between atoms: _503  and  _506
REMARK  214  A    between atoms: _506  and  _507
REMARK  215  A    between atoms: _507  and  _508
REMARK  216  A    between atoms: _511  and  _513
REMARK  217  A    between atoms: _513  and  _514
REMARK  218  A    between atoms: _513  and  _516
REMARK  219  A    between atoms: _516  and  _517
REMARK  220  A    between atoms: _523  and  _525
REMARK  221  A    between atoms: _525  and  _526
REMARK  222  A    between atoms: _525  and  _528
REMARK  223  A    between atoms: _530  and  _532
REMARK  224  A    between atoms: _532  and  _533
REMARK  225  A    between atoms: _532  and  _535
REMARK  226  A    between atoms: _535  and  _536
REMARK  227  A    between atoms: _542  and  _544
REMARK  228  A    between atoms: _544  and  _545
REMARK  229  A    between atoms: _544  and  _547
REMARK  230  A    between atoms: _547  and  _548
REMARK  231  A    between atoms: _553  and  _554
REMARK  232  A    between atoms: _556  and  _558
REMARK  233  A    between atoms: _558  and  _559
REMARK  234  A    between atoms: _558  and  _561
REMARK  235  A    between atoms: _561  and  _562
REMARK  236  A    between atoms: _565  and  _567
REMARK  237  A    between atoms: _567  and  _568
REMARK  238  A    between atoms: _567  and  _570
REMARK  239  A    between atoms: _570  and  _571
REMARK  240  A    between atoms: _577  and  _579
REMARK  241  A    between atoms: _579  and  _580
REMARK  242  A    between atoms: _579  and  _582
REMARK  243  A    between atoms: _582  and  _583
REMARK  244  A    between atoms: _583  and  _584
REMARK  245  A    between atoms: _584  and  _585
REMARK  246  A    between atoms: _594  and  _596
REMARK  247  A    between atoms: _596  and  _597
REMARK  248  A    between atoms: _596  and  _599
REMARK  249  A    between atoms: _599  and  _600
REMARK  250  A    between atoms: _600  and  _601
REMARK  251  A    between atoms: _604  and  _606
REMARK  252  A    between atoms: _606  and  _607
REMARK  253  A    between atoms: _606  and  _609
REMARK  254  A    between atoms: _609  and  _610
REMARK  255  A    between atoms: _612  and  _614
REMARK  256  A    between atoms: _614  and  _615
REMARK  257  A    between atoms: _614  and  _617
REMARK  258  A    between atoms: _617  and  _618
REMARK  259  A    between atoms: _621  and  _623
REMARK  260  A    between atoms: _623  and  _624
REMARK  261  A    between atoms: _623  and  _626
REMARK  262  A    between atoms: _629  and  _631
REMARK  263  A    between atoms: _631  and  _632
REMARK  264  A    between atoms: _631  and  _634
REMARK  265  A    between atoms: _634  and  _635
REMARK  266  A    between atoms: _635  and  _636
REMARK  267  A    between atoms: _639  and  _641
REMARK  268  A    between atoms: _641  and  _642
REMARK  269  A    between atoms: _641  and  _644
REMARK  270  A    between atoms: _644  and  _645
REMARK  271  A    between atoms: _651  and  _653
REMARK  272  A    between atoms: _653  and  _654
REMARK  273  A    between atoms: _653  and  _656
REMARK  274  A    between atoms: _656  and  _657
REMARK  275  A    between atoms: _660  and  _662
REMARK  276  A    between atoms: _662  and  _663
REMARK  277  A    between atoms: _662  and  _665
REMARK  278  A    between atoms: _665  and  _666
REMARK                            x       y       z     vdW  Elec       q    Type
REMARK                         _______ _______ _______ _____ _____    ______ ____
ROOT
ATOM      1  O   HOH     1      -8.205  65.395   6.410  0.00  0.00    +0.000 OA
ENDROOT
TORSDOF 0
REMARK  Name = ../refined-set-2016/2oax/2oax_pocket.pdb
REMARK  278 active torsions:
REMARK  status: ('A' for Active; 'I' for Inactive)
REMARK    1  A    between atoms: _1  and  _3
REMARK    2  A    between atoms: _3  and  _4
REMARK    3  A    between atoms: _7  and  _9
REMARK    4  A    between atoms: _9  and  _10
REMARK    5  A    between atoms: _9  and  _12
REMARK    6  A    between atoms: _12  and  _13
REMARK    7  A    between atoms: _13  and  _14
REMARK    8  A    between atoms: _17  and  _19
REMARK    9  A    between atoms: _19  and  _20
REMARK   10  A    between atoms: _19  and  _22
REMARK   11  A    between atoms: _22  and  _23
REMARK   12  A    between atoms: _26  and  _28
REMARK   13  A    between atoms: _28  and  _29
REMARK   14  A    between atoms: _28  and  _31
REMARK   15  A    between atoms: _31  and  _32
REMARK   16  A    between atoms: _35  and  _37
REMARK   17  A    between atoms: _37  and  _38
REMARK   18  A    between atoms: _37  and  _40
REMARK   19  A    between atoms: _40  and  _41
REMARK   20  A    between atoms: _43  and  _45
REMARK   21  A    between atoms: _45  and  _46
REMARK   22  A    between atoms: _45  and  _48
REMARK   23  A    between atoms: _48  and  _49
REMARK   24  A    between atoms: _52  and  _54
REMARK   25  A    between atoms: _54  and  _55
REMARK   26  A    between atoms: _54  and  _57
REMARK   27  A    between atoms: _57  and  _58
REMARK   28  A    between atoms: _61  and  _63
REMARK   29  A    between atoms: _63  and  _64
REMARK   30  A    between atoms: _63  and  _66
REMARK   31  A    between atoms: _66  and  _67
REMARK   32  A    between atoms: _72  and  _74
REMARK   33  A    between atoms: _74  and  _75
REMARK   34  A    between atoms: _74  and  _77
REMARK   35  A    between atoms: _77  and  _78
REMARK   36  A    between atoms: _78  and  _79
REMARK   37  A    between atoms: _79  and  _80
REMARK   38  A    between atoms: _89  and  _91
REMARK   39  A    between atoms: _91  and  _92
REMARK   40  A    between atoms: _91  and  _94
REMARK   41  A    between atoms: _94  and  _95
REMARK   42  A    between atoms: _98  and  _100
REMARK   43  A    between atoms: _100  and  _101
REMARK   44  A    between atoms: _104  and  _106
REMARK   45  A    between atoms: _106  and  _107
REMARK   46  A    between atoms: _109  and  _111
REMARK   47  A    between atoms: _111  and  _112
REMARK   48  A    between atoms: _111  and  _114
REMARK   49  A    between atoms: _114  and  _115
REMARK   50  A    between atoms: _115  and  _116
REMARK   51  A    between atoms: _116  and  _117
REMARK   52  A    between atoms: _117  and  _118
REMARK   53  A    between atoms: _122  and  _124
REMARK   54  A    between atoms: _124  and  _125
REMARK   55  A    between atoms: _124  and  _127
REMARK   56  A    between atoms: _127  and  _128
REMARK   57  A    between atoms: _128  and  _129
REMARK   58  A    between atoms: _134  and  _136
REMARK   59  A    between atoms: _136  and  _137
REMARK   60  A    between atoms: _136  and  _139
REMARK   61  A    between atoms: _139  and  _140
REMARK   62  A    between atoms: _140  and  _141
REMARK   63  A    between atoms: _143  and  _145
REMARK   64  A    between atoms: _145  and  _146
REMARK   65  A    between atoms: _145  and  _148
REMARK   66  A    between atoms: _148  and  _149
REMARK   67  A    between atoms: _159  and  _161
REMARK   68  A    between atoms: _161  and  _162
REMARK   69  A    between atoms: _161  and  _164
REMARK   70  A    between atoms: _164  and  _165
REMARK   71  A    between atoms: _165  and  _166
REMARK   72  A    between atoms: _168  and  _170
REMARK   73  A    between atoms: _170  and  _171
REMARK   74  A    between atoms: _170  and  _173
REMARK   75  A    between atoms: _175  and  _177
REMARK   76  A    between atoms: _177  and  _178
REMARK   77  A    between atoms: _177  and  _180
REMARK   78  A    between atoms: _180  and  _181
REMARK   79  A    between atoms: _184  and  _186
REMARK   80  A    between atoms: _186  and  _187
REMARK   81  A    between atoms: _186  and  _189
REMARK   82  A    between atoms: _189  and  _190
REMARK   83  A    between atoms: _193  and  _195
REMARK   84  A    between atoms: _195  and  _196
REMARK   85  A    between atoms: _195  and  _198
REMARK   86  A    between atoms: _198  and  _199
REMARK   87  A    between atoms: _201  and  _203
REMARK   88  A    between atoms: _203  and  _204
REMARK   89  A    between atoms: _203  and  _206
REMARK   90  A    between atoms: _206  and  _207
REMARK   91  A    between atoms: _213  and  _215
REMARK   92  A    between atoms: _215  and  _216
REMARK   93  A    between atoms: _219  and  _221
REMARK   94  A    between atoms: _221  and  _222
REMARK   95  A    between atoms: _221  and  _224
REMARK   96  A    between atoms: _224  and  _225
REMARK   97  A    between atoms: _228  and  _230
REMARK   98  A    between atoms: _230  and  _231
REMARK   99  A    between atoms: _230  and  _233
REMARK  100  A    between atoms: _233  and  _234
REMARK  101  A    between atoms: _236  and  _238
REMARK  102  A    between atoms: _238  and  _239
REMARK  103  A    between atoms: _238  and  _241
REMARK  104  A    between atoms: _241  and  _242
REMARK  105  A    between atoms: _252  and  _254
REMARK  106  A    between atoms: _254  and  _255
REMARK  107  A    between atoms: _254  and  _257
REMARK  108  A    between atoms: _257  and  _258
REMARK  109  A    between atoms: _258  and  _259
REMARK  110  A    between atoms: _259  and  _260
REMARK  111  A    between atoms: _269  and  _271
REMARK  112  A    between atoms: _271  and  _272
REMARK  113  A    between atoms: _271  and  _274
REMARK  114  A    between atoms: _274  and  _275
REMARK  115  A    between atoms: _277  and  _279
REMARK  116  A    between atoms: _279  and  _280
REMARK  117  A    between atoms: _279  and  _282
REMARK  118  A    between atoms: _282  and  _283
REMARK  119  A    between atoms: _286  and  _288
REMARK  120  A    between atoms: _288  and  _289
REMARK  121  A    between atoms: _288  and  _291
REMARK  122  A    between atoms: _291  and  _292
REMARK  123  A    between atoms: _297  and  _298
REMARK  124  A    between atoms: _300  and  _302
REMARK  125  A    between atoms: _302  and  _303
REMARK  126  A    between atoms: _302  and  _305
REMARK  127  A    between atoms: _305  and  _306
REMARK  128  A    between atoms: _312  and  _314
REMARK  129  A    between atoms: _314  and  _315
REMARK  130  A    between atoms: _318  and  _320
REMARK  131  A    between atoms: _320  and  _321
REMARK  132  A    between atoms: _320  and  _323
REMARK  133  A    between atoms: _323  and  _324
REMARK  134  A    between atoms: _327  and  _329
REMARK  135  A    between atoms: _329  and  _330
REMARK  136  A    between atoms: _329  and  _332
REMARK  137  A    between atoms: _332  and  _333
REMARK  138  A    between atoms: _339  and  _341
REMARK  139  A    between atoms: _341  and  _342
REMARK  140  A    between atoms: _341  and  _344
REMARK  141  A    between atoms: _344  and  _345
REMARK  142  A    between atoms: _345  and  _346
REMARK  143  A    between atoms: _348  and  _350
REMARK  144  A    between atoms: _350  and  _351
REMARK  145  A    between atoms: _350  and  _353
REMARK  146  A    between atoms: _353  and  _354
REMARK  147  A    between atoms: _356  and  _358
REMARK  148  A    between atoms: _358  and  _359
REMARK  149  A    between atoms: _362  and  _364
REMARK  150  A    between atoms: _364  and  _365
REMARK  151  A    between atoms: _364  and  _367
REMARK  152  A    between atoms: _367  and  _368
REMARK  153  A    between atoms: _368  and  _369
REMARK  154  A    between atoms: _371  and  _373
REMARK  155  A    between atoms: _373  and  _374
REMARK  156  A    between atoms: _373  and  _376
REMARK  157  A    between atoms: _376  and  _377
REMARK  158  A    between atoms: _382  and  _383
REMARK  159  A    between atoms: _385  and  _387
REMARK  160  A    between atoms: _387  and  _388
REMARK  161  A    between atoms: _387  and  _390
REMARK  162  A    between atoms: _390  and  _391
REMARK  163  A    between atoms: _391  and  _392
REMARK  164  A    between atoms: _395  and  _397
REMARK  165  A    between atoms: _397  and  _398
REMARK  166  A    between atoms: _397  and  _400
REMARK  167  A    between atoms: _400  and  _401
REMARK  168  A    between atoms: _404  and  _406
REMARK  169  A    between atoms: _406  and  _407
REMARK  170  A    between atoms: _406  and  _409
REMARK  171  A    between atoms: _411  and  _413
REMARK  172  A    between atoms: _413  and  _414
REMARK  173  A    between atoms: _413  and  _416
REMARK  174  A    between atoms: _416  and  _417
REMARK  175  A    between atoms: _417  and  _418
REMARK  176  A    between atoms: _423  and  _425
REMARK  177  A    between atoms: _425  and  _426
REMARK  178  A    between atoms: _428  and  _430
REMARK  179  A    between atoms: _430  and  _431
REMARK  180  A    between atoms: _430  and  _433
REMARK  181  A    between atoms: _433  and  _434
REMARK  182  A    between atoms: _434  and  _435
REMARK  183  A    between atoms: _437  and  _439
REMARK  184  A    between atoms: _439  and  _440
REMARK  185  A    between atoms: _439  and  _442
REMARK  186  A    between atoms: _442  and  _443
REMARK  187  A    between atoms: _448  and  _450
REMARK  188  A    between atoms: _450  and  _451
REMARK  189  A    between atoms: _450  and  _453
REMARK  190  A    between atoms: _453  and  _454
REMARK  191  A    between atoms: _454  and  _455
REMARK  192  A    between atoms: _457  and  _459
REMARK  193  A    between atoms: _459  and  _460
REMARK  194  A    between atoms: _459  and  _462
REMARK  195  A    between atoms: _462  and  _463
REMARK  196  A    between atoms: _466  and  _468
REMARK  197  A    between atoms: _468  and  _469
REMARK  198  A    between atoms: _468  and  _471
REMARK  199  A    between atoms: _474  and  _476
REMARK  200  A    between atoms: _476  and  _477
REMARK  201  A    between atoms: _476  and  _479
REMARK  202  A    between atoms: _479  and  _480
REMARK  203  A    between atoms: _483  and  _485
REMARK  204  A    between atoms: _485  and  _486
REMARK  205  A    between atoms: _485  and  _488
REMARK  206  A    between atoms: _488  and  _489
REMARK  207  A    between atoms: _492  and  _494
REMARK  208  A    between atoms: _494  and  _495
REMARK  209  A    between atoms: _494  and  _497
REMARK  210  A    between atoms: _497  and  _498
REMARK  211  A    between atoms: _501  and  _503
REMARK  212  A    between atoms: _503  and  _504
REMARK  213  A    between atoms: _503  and  _506
REMARK  214  A    between atoms: _506  and  _507
REMARK  215  A    between atoms: _507  and  _508
REMARK  216  A    between atoms: _511  and  _513
REMARK  217  A    between atoms: _513  and  _514
REMARK  218  A    between atoms: _513  and  _516
REMARK  219  A    between atoms: _516  and  _517
REMARK  220  A    between atoms: _523  and  _525
REMARK  221  A    between atoms: _525  and  _526
REMARK  222  A    between atoms: _525  and  _528
REMARK  223  A    between atoms: _530  and  _532
REMARK  224  A    between atoms: _532  and  _533
REMARK  225  A    between atoms: _532  and  _535
REMARK  226  A    between atoms: _535  and  _536
REMARK  227  A    between atoms: _542  and  _544
REMARK  228  A    between atoms: _544  and  _545
REMARK  229  A    between atoms: _544  and  _547
REMARK  230  A    between atoms: _547  and  _548
REMARK  231  A    between atoms: _553  and  _554
REMARK  232  A    between atoms: _556  and  _558
REMARK  233  A    between atoms: _558  and  _559
REMARK  234  A    between atoms: _558  and  _561
REMARK  235  A    between atoms: _561  and  _562
REMARK  236  A    between atoms: _565  and  _567
REMARK  237  A    between atoms: _567  and  _568
REMARK  238  A    between atoms: _567  and  _570
REMARK  239  A    between atoms: _570  and  _571
REMARK  240  A    between atoms: _577  and  _579
REMARK  241  A    between atoms: _579  and  _580
REMARK  242  A    between atoms: _579  and  _582
REMARK  243  A    between atoms: _582  and  _583
REMARK  244  A    between atoms: _583  and  _584
REMARK  245  A    between atoms: _584  and  _585
REMARK  246  A    between atoms: _594  and  _596
REMARK  247  A    between atoms: _596  and  _597
REMARK  248  A    between atoms: _596  and  _599
REMARK  249  A    between atoms: _599  and  _600
REMARK  250  A    between atoms: _600  and  _601
REMARK  251  A    between atoms: _604  and  _606
REMARK  252  A    between atoms: _606  and  _607
REMARK  253  A    between atoms: _606  and  _609
REMARK  254  A    between atoms: _609  and  _610
REMARK  255  A    between atoms: _612  and  _614
REMARK  256  A    between atoms: _614  and  _615
REMARK  257  A    between atoms: _614  and  _617
REMARK  258  A    between atoms: _617  and  _618
REMARK  259  A    between atoms: _621  and  _623
REMARK  260  A    between atoms: _623  and  _624
REMARK  261  A    between atoms: _623  and  _626
REMARK  262  A    between atoms: _629  and  _631
REMARK  263  A    between atoms: _631  and  _632
REMARK  264  A    between atoms: _631  and  _634
REMARK  265  A    between atoms: _634  and  _635
REMARK  266  A    between atoms: _635  and  _636
REMARK  267  A    between atoms: _639  and  _641
REMARK  268  A    between atoms: _641  and  _642
REMARK  269  A    between atoms: _641  and  _644
REMARK  270  A    between atoms: _644  and  _645
REMARK  271  A    between atoms: _651  and  _653
REMARK  272  A    between atoms: _653  and  _654
REMARK  273  A    between atoms: _653  and  _656
REMARK  274  A    between atoms: _656  and  _657
REMARK  275  A    between atoms: _660  and  _662
REMARK  276  A    between atoms: _662  and  _663
REMARK  277  A    between atoms: _662  and  _665
REMARK  278  A    between atoms: _665  and  _666
REMARK                            x       y       z     vdW  Elec       q    Type
REMARK                         _______ _______ _______ _____ _____    ______ ____
ROOT
ATOM      1  O   HOH     1      -6.948  62.657   8.189  0.00  0.00    +0.000 OA
ENDROOT
TORSDOF 0
REMARK  Name = ../refined-set-2016/2oax/2oax_pocket.pdb
REMARK  278 active torsions:
REMARK  status: ('A' for Active; 'I' for Inactive)
REMARK    1  A    between atoms: _1  and  _3
REMARK    2  A    between atoms: _3  and  _4
REMARK    3  A    between atoms: _7  and  _9
REMARK    4  A    between atoms: _9  and  _10
REMARK    5  A    between atoms: _9  and  _12
REMARK    6  A    between atoms: _12  and  _13
REMARK    7  A    between atoms: _13  and  _14
REMARK    8  A    between atoms: _17  and  _19
REMARK    9  A    between atoms: _19  and  _20
REMARK   10  A    between atoms: _19  and  _22
REMARK   11  A    between atoms: _22  and  _23
REMARK   12  A    between atoms: _26  and  _28
REMARK   13  A    between atoms: _28  and  _29
REMARK   14  A    between atoms: _28  and  _31
REMARK   15  A    between atoms: _31  and  _32
REMARK   16  A    between atoms: _35  and  _37
REMARK   17  A    between atoms: _37  and  _38
REMARK   18  A    between atoms: _37  and  _40
REMARK   19  A    between atoms: _40  and  _41
REMARK   20  A    between atoms: _43  and  _45
REMARK   21  A    between atoms: _45  and  _46
REMARK   22  A    between atoms: _45  and  _48
REMARK   23  A    between atoms: _48  and  _49
REMARK   24  A    between atoms: _52  and  _54
REMARK   25  A    between atoms: _54  and  _55
REMARK   26  A    between atoms: _54  and  _57
REMARK   27  A    between atoms: _57  and  _58
REMARK   28  A    between atoms: _61  and  _63
REMARK   29  A    between atoms: _63  and  _64
REMARK   30  A    between atoms: _63  and  _66
REMARK   31  A    between atoms: _66  and  _67
REMARK   32  A    between atoms: _72  and  _74
REMARK   33  A    between atoms: _74  and  _75
REMARK   34  A    between atoms: _74  and  _77
REMARK   35  A    between atoms: _77  and  _78
REMARK   36  A    between atoms: _78  and  _79
REMARK   37  A    between atoms: _79  and  _80
REMARK   38  A    between atoms: _89  and  _91
REMARK   39  A    between atoms: _91  and  _92
REMARK   40  A    between atoms: _91  and  _94
REMARK   41  A    between atoms: _94  and  _95
REMARK   42  A    between atoms: _98  and  _100
REMARK   43  A    between atoms: _100  and  _101
REMARK   44  A    between atoms: _104  and  _106
REMARK   45  A    between atoms: _106  and  _107
REMARK   46  A    between atoms: _109  and  _111
REMARK   47  A    between atoms: _111  and  _112
REMARK   48  A    between atoms: _111  and  _114
REMARK   49  A    between atoms: _114  and  _115
REMARK   50  A    between atoms: _115  and  _116
REMARK   51  A    between atoms: _116  and  _117
REMARK   52  A    between atoms: _117  and  _118
REMARK   53  A    between atoms: _122  and  _124
REMARK   54  A    between atoms: _124  and  _125
REMARK   55  A    between atoms: _124  and  _127
REMARK   56  A    between atoms: _127  and  _128
REMARK   57  A    between atoms: _128  and  _129
REMARK   58  A    between atoms: _134  and  _136
REMARK   59  A    between atoms: _136  and  _137
REMARK   60  A    between atoms: _136  and  _139
REMARK   61  A    between atoms: _139  and  _140
REMARK   62  A    between atoms: _140  and  _141
REMARK   63  A    between atoms: _143  and  _145
REMARK   64  A    between atoms: _145  and  _146
REMARK   65  A    between atoms: _145  and  _148
REMARK   66  A    between atoms: _148  and  _149
REMARK   67  A    between atoms: _159  and  _161
REMARK   68  A    between atoms: _161  and  _162
REMARK   69  A    between atoms: _161  and  _164
REMARK   70  A    between atoms: _164  and  _165
REMARK   71  A    between atoms: _165  and  _166
REMARK   72  A    between atoms: _168  and  _170
REMARK   73  A    between atoms: _170  and  _171
REMARK   74  A    between atoms: _170  and  _173
REMARK   75  A    between atoms: _175  and  _177
REMARK   76  A    between atoms: _177  and  _178
REMARK   77  A    between atoms: _177  and  _180
REMARK   78  A    between atoms: _180  and  _181
REMARK   79  A    between atoms: _184  and  _186
REMARK   80  A    between atoms: _186  and  _187
REMARK   81  A    between atoms: _186  and  _189
REMARK   82  A    between atoms: _189  and  _190
REMARK   83  A    between atoms: _193  and  _195
REMARK   84  A    between atoms: _195  and  _196
REMARK   85  A    between atoms: _195  and  _198
REMARK   86  A    between atoms: _198  and  _199
REMARK   87  A    between atoms: _201  and  _203
REMARK   88  A    between atoms: _203  and  _204
REMARK   89  A    between atoms: _203  and  _206
REMARK   90  A    between atoms: _206  and  _207
REMARK   91  A    between atoms: _213  and  _215
REMARK   92  A    between atoms: _215  and  _216
REMARK   93  A    between atoms: _219  and  _221
REMARK   94  A    between atoms: _221  and  _222
REMARK   95  A    between atoms: _221  and  _224
REMARK   96  A    between atoms: _224  and  _225
REMARK   97  A    between atoms: _228  and  _230
REMARK   98  A    between atoms: _230  and  _231
REMARK   99  A    between atoms: _230  and  _233
REMARK  100  A    between atoms: _233  and  _234
REMARK  101  A    between atoms: _236  and  _238
REMARK  102  A    between atoms: _238  and  _239
REMARK  103  A    between atoms: _238  and  _241
REMARK  104  A    between atoms: _241  and  _242
REMARK  105  A    between atoms: _252  and  _254
REMARK  106  A    between atoms: _254  and  _255
REMARK  107  A    between atoms: _254  and  _257
REMARK  108  A    between atoms: _257  and  _258
REMARK  109  A    between atoms: _258  and  _259
REMARK  110  A    between atoms: _259  and  _260
REMARK  111  A    between atoms: _269  and  _271
REMARK  112  A    between atoms: _271  and  _272
REMARK  113  A    between atoms: _271  and  _274
REMARK  114  A    between atoms: _274  and  _275
REMARK  115  A    between atoms: _277  and  _279
REMARK  116  A    between atoms: _279  and  _280
REMARK  117  A    between atoms: _279  and  _282
REMARK  118  A    between atoms: _282  and  _283
REMARK  119  A    between atoms: _286  and  _288
REMARK  120  A    between atoms: _288  and  _289
REMARK  121  A    between atoms: _288  and  _291
REMARK  122  A    between atoms: _291  and  _292
REMARK  123  A    between atoms: _297  and  _298
REMARK  124  A    between atoms: _300  and  _302
REMARK  125  A    between atoms: _302  and  _303
REMARK  126  A    between atoms: _302  and  _305
REMARK  127  A    between atoms: _305  and  _306
REMARK  128  A    between atoms: _312  and  _314
REMARK  129  A    between atoms: _314  and  _315
REMARK  130  A    between atoms: _318  and  _320
REMARK  131  A    between atoms: _320  and  _321
REMARK  132  A    between atoms: _320  and  _323
REMARK  133  A    between atoms: _323  and  _324
REMARK  134  A    between atoms: _327  and  _329
REMARK  135  A    between atoms: _329  and  _330
REMARK  136  A    between atoms: _329  and  _332
REMARK  137  A    between atoms: _332  and  _333
REMARK  138  A    between atoms: _339  and  _341
REMARK  139  A    between atoms: _341  and  _342
REMARK  140  A    between atoms: _341  and  _344
REMARK  141  A    between atoms: _344  and  _345
REMARK  142  A    between atoms: _345  and  _346
REMARK  143  A    between atoms: _348  and  _350
REMARK  144  A    between atoms: _350  and  _351
REMARK  145  A    between atoms: _350  and  _353
REMARK  146  A    between atoms: _353  and  _354
REMARK  147  A    between atoms: _356  and  _358
REMARK  148  A    between atoms: _358  and  _359
REMARK  149  A    between atoms: _362  and  _364
REMARK  150  A    between atoms: _364  and  _365
REMARK  151  A    between atoms: _364  and  _367
REMARK  152  A    between atoms: _367  and  _368
REMARK  153  A    between atoms: _368  and  _369
REMARK  154  A    between atoms: _371  and  _373
REMARK  155  A    between atoms: _373  and  _374
REMARK  156  A    between atoms: _373  and  _376
REMARK  157  A    between atoms: _376  and  _377
REMARK  158  A    between atoms: _382  and  _383
REMARK  159  A    between atoms: _385  and  _387
REMARK  160  A    between atoms: _387  and  _388
REMARK  161  A    between atoms: _387  and  _390
REMARK  162  A    between atoms: _390  and  _391
REMARK  163  A    between atoms: _391  and  _392
REMARK  164  A    between atoms: _395  and  _397
REMARK  165  A    between atoms: _397  and  _398
REMARK  166  A    between atoms: _397  and  _400
REMARK  167  A    between atoms: _400  and  _401
REMARK  168  A    between atoms: _404  and  _406
REMARK  169  A    between atoms: _406  and  _407
REMARK  170  A    between atoms: _406  and  _409
REMARK  171  A    between atoms: _411  and  _413
REMARK  172  A    between atoms: _413  and  _414
REMARK  173  A    between atoms: _413  and  _416
REMARK  174  A    between atoms: _416  and  _417
REMARK  175  A    between atoms: _417  and  _418
REMARK  176  A    between atoms: _423  and  _425
REMARK  177  A    between atoms: _425  and  _426
REMARK  178  A    between atoms: _428  and  _430
REMARK  179  A    between atoms: _430  and  _431
REMARK  180  A    between atoms: _430  and  _433
REMARK  181  A    between atoms: _433  and  _434
REMARK  182  A    between atoms: _434  and  _435
REMARK  183  A    between atoms: _437  and  _439
REMARK  184  A    between atoms: _439  and  _440
REMARK  185  A    between atoms: _439  and  _442
REMARK  186  A    between atoms: _442  and  _443
REMARK  187  A    between atoms: _448  and  _450
REMARK  188  A    between atoms: _450  and  _451
REMARK  189  A    between atoms: _450  and  _453
REMARK  190  A    between atoms: _453  and  _454
REMARK  191  A    between atoms: _454  and  _455
REMARK  192  A    between atoms: _457  and  _459
REMARK  193  A    between atoms: _459  and  _460
REMARK  194  A    between atoms: _459  and  _462
REMARK  195  A    between atoms: _462  and  _463
REMARK  196  A    between atoms: _466  and  _468
REMARK  197  A    between atoms: _468  and  _469
REMARK  198  A    between atoms: _468  and  _471
REMARK  199  A    between atoms: _474  and  _476
REMARK  200  A    between atoms: _476  and  _477
REMARK  201  A    between atoms: _476  and  _479
REMARK  202  A    between atoms: _479  and  _480
REMARK  203  A    between atoms: _483  and  _485
REMARK  204  A    between atoms: _485  and  _486
REMARK  205  A    between atoms: _485  and  _488
REMARK  206  A    between atoms: _488  and  _489
REMARK  207  A    between atoms: _492  and  _494
REMARK  208  A    between atoms: _494  and  _495
REMARK  209  A    between atoms: _494  and  _497
REMARK  210  A    between atoms: _497  and  _498
REMARK  211  A    between atoms: _501  and  _503
REMARK  212  A    between atoms: _503  and  _504
REMARK  213  A    between atoms: _503  and  _506
REMARK  214  A    between atoms: _506  and  _507
REMARK  215  A    between atoms: _507  and  _508
REMARK  216  A    between atoms: _511  and  _513
REMARK  217  A    between atoms: _513  and  _514
REMARK  218  A    between atoms: _513  and  _516
REMARK  219  A    between atoms: _516  and  _517
REMARK  220  A    between atoms: _523  and  _525
REMARK  221  A    between atoms: _525  and  _526
REMARK  222  A    between atoms: _525  and  _528
REMARK  223  A    between atoms: _530  and  _532
REMARK  224  A    between atoms: _532  and  _533
REMARK  225  A    between atoms: _532  and  _535
REMARK  226  A    between atoms: _535  and  _536
REMARK  227  A    between atoms: _542  and  _544
REMARK  228  A    between atoms: _544  and  _545
REMARK  229  A    between atoms: _544  and  _547
REMARK  230  A    between atoms: _547  and  _548
REMARK  231  A    between atoms: _553  and  _554
REMARK  232  A    between atoms: _556  and  _558
REMARK  233  A    between atoms: _558  and  _559
REMARK  234  A    between atoms: _558  and  _561
REMARK  235  A    between atoms: _561  and  _562
REMARK  236  A    between atoms: _565  and  _567
REMARK  237  A    between atoms: _567  and  _568
REMARK  238  A    between atoms: _567  and  _570
REMARK  239  A    between atoms: _570  and  _571
REMARK  240  A    between atoms: _577  and  _579
REMARK  241  A    between atoms: _579  and  _580
REMARK  242  A    between atoms: _579  and  _582
REMARK  243  A    between atoms: _582  and  _583
REMARK  244  A    between atoms: _583  and  _584
REMARK  245  A    between atoms: _584  and  _585
REMARK  246  A    between atoms: _594  and  _596
REMARK  247  A    between atoms: _596  and  _597
REMARK  248  A    between atoms: _596  and  _599
REMARK  249  A    between atoms: _599  and  _600
REMARK  250  A    between atoms: _600  and  _601
REMARK  251  A    between atoms: _604  and  _606
REMARK  252  A    between atoms: _606  and  _607
REMARK  253  A    between atoms: _606  and  _609
REMARK  254  A    between atoms: _609  and  _610
REMARK  255  A    between atoms: _612  and  _614
REMARK  256  A    between atoms: _614  and  _615
REMARK  257  A    between atoms: _614  and  _617
REMARK  258  A    between atoms: _617  and  _618
REMARK  259  A    between atoms: _621  and  _623
REMARK  260  A    between atoms: _623  and  _624
REMARK  261  A    between atoms: _623  and  _626
REMARK  262  A    between atoms: _629  and  _631
REMARK  263  A    between atoms: _631  and  _632
REMARK  264  A    between atoms: _631  and  _634
REMARK  265  A    between atoms: _634  and  _635
REMARK  266  A    between atoms: _635  and  _636
REMARK  267  A    between atoms: _639  and  _641
REMARK  268  A    between atoms: _641  and  _642
REMARK  269  A    between atoms: _641  and  _644
REMARK  270  A    between atoms: _644  and  _645
REMARK  271  A    between atoms: _651  and  _653
REMARK  272  A    between atoms: _653  and  _654
REMARK  273  A    between atoms: _653  and  _656
REMARK  274  A    between atoms: _656  and  _657
REMARK  275  A    between atoms: _660  and  _662
REMARK  276  A    between atoms: _662  and  _663
REMARK  277  A    between atoms: _662  and  _665
REMARK  278  A    between atoms: _665  and  _666
REMARK                            x       y       z     vdW  Elec       q    Type
REMARK                         _______ _______ _______ _____ _____    ______ ____
ROOT
ATOM      1  O   HOH     1      -9.315  67.011   9.833  0.00  0.00    +0.000 OA
ENDROOT
TORSDOF 0
REMARK  Name = ../refined-set-2016/2oax/2oax_pocket.pdb
REMARK  278 active torsions:
REMARK  status: ('A' for Active; 'I' for Inactive)
REMARK    1  A    between atoms: _1  and  _3
REMARK    2  A    between atoms: _3  and  _4
REMARK    3  A    between atoms: _7  and  _9
REMARK    4  A    between atoms: _9  and  _10
REMARK    5  A    between atoms: _9  and  _12
REMARK    6  A    between atoms: _12  and  _13
REMARK    7  A    between atoms: _13  and  _14
REMARK    8  A    between atoms: _17  and  _19
REMARK    9  A    between atoms: _19  and  _20
REMARK   10  A    between atoms: _19  and  _22
REMARK   11  A    between atoms: _22  and  _23
REMARK   12  A    between atoms: _26  and  _28
REMARK   13  A    between atoms: _28  and  _29
REMARK   14  A    between atoms: _28  and  _31
REMARK   15  A    between atoms: _31  and  _32
REMARK   16  A    between atoms: _35  and  _37
REMARK   17  A    between atoms: _37  and  _38
REMARK   18  A    between atoms: _37  and  _40
REMARK   19  A    between atoms: _40  and  _41
REMARK   20  A    between atoms: _43  and  _45
REMARK   21  A    between atoms: _45  and  _46
REMARK   22  A    between atoms: _45  and  _48
REMARK   23  A    between atoms: _48  and  _49
REMARK   24  A    between atoms: _52  and  _54
REMARK   25  A    between atoms: _54  and  _55
REMARK   26  A    between atoms: _54  and  _57
REMARK   27  A    between atoms: _57  and  _58
REMARK   28  A    between atoms: _61  and  _63
REMARK   29  A    between atoms: _63  and  _64
REMARK   30  A    between atoms: _63  and  _66
REMARK   31  A    between atoms: _66  and  _67
REMARK   32  A    between atoms: _72  and  _74
REMARK   33  A    between atoms: _74  and  _75
REMARK   34  A    between atoms: _74  and  _77
REMARK   35  A    between atoms: _77  and  _78
REMARK   36  A    between atoms: _78  and  _79
REMARK   37  A    between atoms: _79  and  _80
REMARK   38  A    between atoms: _89  and  _91
REMARK   39  A    between atoms: _91  and  _92
REMARK   40  A    between atoms: _91  and  _94
REMARK   41  A    between atoms: _94  and  _95
REMARK   42  A    between atoms: _98  and  _100
REMARK   43  A    between atoms: _100  and  _101
REMARK   44  A    between atoms: _104  and  _106
REMARK   45  A    between atoms: _106  and  _107
REMARK   46  A    between atoms: _109  and  _111
REMARK   47  A    between atoms: _111  and  _112
REMARK   48  A    between atoms: _111  and  _114
REMARK   49  A    between atoms: _114  and  _115
REMARK   50  A    between atoms: _115  and  _116
REMARK   51  A    between atoms: _116  and  _117
REMARK   52  A    between atoms: _117  and  _118
REMARK   53  A    between atoms: _122  and  _124
REMARK   54  A    between atoms: _124  and  _125
REMARK   55  A    between atoms: _124  and  _127
REMARK   56  A    between atoms: _127  and  _128
REMARK   57  A    between atoms: _128  and  _129
REMARK   58  A    between atoms: _134  and  _136
REMARK   59  A    between atoms: _136  and  _137
REMARK   60  A    between atoms: _136  and  _139
REMARK   61  A    between atoms: _139  and  _140
REMARK   62  A    between atoms: _140  and  _141
REMARK   63  A    between atoms: _143  and  _145
REMARK   64  A    between atoms: _145  and  _146
REMARK   65  A    between atoms: _145  and  _148
REMARK   66  A    between atoms: _148  and  _149
REMARK   67  A    between atoms: _159  and  _161
REMARK   68  A    between atoms: _161  and  _162
REMARK   69  A    between atoms: _161  and  _164
REMARK   70  A    between atoms: _164  and  _165
REMARK   71  A    between atoms: _165  and  _166
REMARK   72  A    between atoms: _168  and  _170
REMARK   73  A    between atoms: _170  and  _171
REMARK   74  A    between atoms: _170  and  _173
REMARK   75  A    between atoms: _175  and  _177
REMARK   76  A    between atoms: _177  and  _178
REMARK   77  A    between atoms: _177  and  _180
REMARK   78  A    between atoms: _180  and  _181
REMARK   79  A    between atoms: _184  and  _186
REMARK   80  A    between atoms: _186  and  _187
REMARK   81  A    between atoms: _186  and  _189
REMARK   82  A    between atoms: _189  and  _190
REMARK   83  A    between atoms: _193  and  _195
REMARK   84  A    between atoms: _195  and  _196
REMARK   85  A    between atoms: _195  and  _198
REMARK   86  A    between atoms: _198  and  _199
REMARK   87  A    between atoms: _201  and  _203
REMARK   88  A    between atoms: _203  and  _204
REMARK   89  A    between atoms: _203  and  _206
REMARK   90  A    between atoms: _206  and  _207
REMARK   91  A    between atoms: _213  and  _215
REMARK   92  A    between atoms: _215  and  _216
REMARK   93  A    between atoms: _219  and  _221
REMARK   94  A    between atoms: _221  and  _222
REMARK   95  A    between atoms: _221  and  _224
REMARK   96  A    between atoms: _224  and  _225
REMARK   97  A    between atoms: _228  and  _230
REMARK   98  A    between atoms: _230  and  _231
REMARK   99  A    between atoms: _230  and  _233
REMARK  100  A    between atoms: _233  and  _234
REMARK  101  A    between atoms: _236  and  _238
REMARK  102  A    between atoms: _238  and  _239
REMARK  103  A    between atoms: _238  and  _241
REMARK  104  A    between atoms: _241  and  _242
REMARK  105  A    between atoms: _252  and  _254
REMARK  106  A    between atoms: _254  and  _255
REMARK  107  A    between atoms: _254  and  _257
REMARK  108  A    between atoms: _257  and  _258
REMARK  109  A    between atoms: _258  and  _259
REMARK  110  A    between atoms: _259  and  _260
REMARK  111  A    between atoms: _269  and  _271
REMARK  112  A    between atoms: _271  and  _272
REMARK  113  A    between atoms: _271  and  _274
REMARK  114  A    between atoms: _274  and  _275
REMARK  115  A    between atoms: _277  and  _279
REMARK  116  A    between atoms: _279  and  _280
REMARK  117  A    between atoms: _279  and  _282
REMARK  118  A    between atoms: _282  and  _283
REMARK  119  A    between atoms: _286  and  _288
REMARK  120  A    between atoms: _288  and  _289
REMARK  121  A    between atoms: _288  and  _291
REMARK  122  A    between atoms: _291  and  _292
REMARK  123  A    between atoms: _297  and  _298
REMARK  124  A    between atoms: _300  and  _302
REMARK  125  A    between atoms: _302  and  _303
REMARK  126  A    between atoms: _302  and  _305
REMARK  127  A    between atoms: _305  and  _306
REMARK  128  A    between atoms: _312  and  _314
REMARK  129  A    between atoms: _314  and  _315
REMARK  130  A    between atoms: _318  and  _320
REMARK  131  A    between atoms: _320  and  _321
REMARK  132  A    between atoms: _320  and  _323
REMARK  133  A    between atoms: _323  and  _324
REMARK  134  A    between atoms: _327  and  _329
REMARK  135  A    between atoms: _329  and  _330
REMARK  136  A    between atoms: _329  and  _332
REMARK  137  A    between atoms: _332  and  _333
REMARK  138  A    between atoms: _339  and  _341
REMARK  139  A    between atoms: _341  and  _342
REMARK  140  A    between atoms: _341  and  _344
REMARK  141  A    between atoms: _344  and  _345
REMARK  142  A    between atoms: _345  and  _346
REMARK  143  A    between atoms: _348  and  _350
REMARK  144  A    between atoms: _350  and  _351
REMARK  145  A    between atoms: _350  and  _353
REMARK  146  A    between atoms: _353  and  _354
REMARK  147  A    between atoms: _356  and  _358
REMARK  148  A    between atoms: _358  and  _359
REMARK  149  A    between atoms: _362  and  _364
REMARK  150  A    between atoms: _364  and  _365
REMARK  151  A    between atoms: _364  and  _367
REMARK  152  A    between atoms: _367  and  _368
REMARK  153  A    between atoms: _368  and  _369
REMARK  154  A    between atoms: _371  and  _373
REMARK  155  A    between atoms: _373  and  _374
REMARK  156  A    between atoms: _373  and  _376
REMARK  157  A    between atoms: _376  and  _377
REMARK  158  A    between atoms: _382  and  _383
REMARK  159  A    between atoms: _385  and  _387
REMARK  160  A    between atoms: _387  and  _388
REMARK  161  A    between atoms: _387  and  _390
REMARK  162  A    between atoms: _390  and  _391
REMARK  163  A    between atoms: _391  and  _392
REMARK  164  A    between atoms: _395  and  _397
REMARK  165  A    between atoms: _397  and  _398
REMARK  166  A    between atoms: _397  and  _400
REMARK  167  A    between atoms: _400  and  _401
REMARK  168  A    between atoms: _404  and  _406
REMARK  169  A    between atoms: _406  and  _407
REMARK  170  A    between atoms: _406  and  _409
REMARK  171  A    between atoms: _411  and  _413
REMARK  172  A    between atoms: _413  and  _414
REMARK  173  A    between atoms: _413  and  _416
REMARK  174  A    between atoms: _416  and  _417
REMARK  175  A    between atoms: _417  and  _418
REMARK  176  A    between atoms: _423  and  _425
REMARK  177  A    between atoms: _425  and  _426
REMARK  178  A    between atoms: _428  and  _430
REMARK  179  A    between atoms: _430  and  _431
REMARK  180  A    between atoms: _430  and  _433
REMARK  181  A    between atoms: _433  and  _434
REMARK  182  A    between atoms: _434  and  _435
REMARK  183  A    between atoms: _437  and  _439
REMARK  184  A    between atoms: _439  and  _440
REMARK  185  A    between atoms: _439  and  _442
REMARK  186  A    between atoms: _442  and  _443
REMARK  187  A    between atoms: _448  and  _450
REMARK  188  A    between atoms: _450  and  _451
REMARK  189  A    between atoms: _450  and  _453
REMARK  190  A    between atoms: _453  and  _454
REMARK  191  A    between atoms: _454  and  _455
REMARK  192  A    between atoms: _457  and  _459
REMARK  193  A    between atoms: _459  and  _460
REMARK  194  A    between atoms: _459  and  _462
REMARK  195  A    between atoms: _462  and  _463
REMARK  196  A    between atoms: _466  and  _468
REMARK  197  A    between atoms: _468  and  _469
REMARK  198  A    between atoms: _468  and  _471
REMARK  199  A    between atoms: _474  and  _476
REMARK  200  A    between atoms: _476  and  _477
REMARK  201  A    between atoms: _476  and  _479
REMARK  202  A    between atoms: _479  and  _480
REMARK  203  A    between atoms: _483  and  _485
REMARK  204  A    between atoms: _485  and  _486
REMARK  205  A    between atoms: _485  and  _488
REMARK  206  A    between atoms: _488  and  _489
REMARK  207  A    between atoms: _492  and  _494
REMARK  208  A    between atoms: _494  and  _495
REMARK  209  A    between atoms: _494  and  _497
REMARK  210  A    between atoms: _497  and  _498
REMARK  211  A    between atoms: _501  and  _503
REMARK  212  A    between atoms: _503  and  _504
REMARK  213  A    between atoms: _503  and  _506
REMARK  214  A    between atoms: _506  and  _507
REMARK  215  A    between atoms: _507  and  _508
REMARK  216  A    between atoms: _511  and  _513
REMARK  217  A    between atoms: _513  and  _514
REMARK  218  A    between atoms: _513  and  _516
REMARK  219  A    between atoms: _516  and  _517
REMARK  220  A    between atoms: _523  and  _525
REMARK  221  A    between atoms: _525  and  _526
REMARK  222  A    between atoms: _525  and  _528
REMARK  223  A    between atoms: _530  and  _532
REMARK  224  A    between atoms: _532  and  _533
REMARK  225  A    between atoms: _532  and  _535
REMARK  226  A    between atoms: _535  and  _536
REMARK  227  A    between atoms: _542  and  _544
REMARK  228  A    between atoms: _544  and  _545
REMARK  229  A    between atoms: _544  and  _547
REMARK  230  A    between atoms: _547  and  _548
REMARK  231  A    between atoms: _553  and  _554
REMARK  232  A    between atoms: _556  and  _558
REMARK  233  A    between atoms: _558  and  _559
REMARK  234  A    between atoms: _558  and  _561
REMARK  235  A    between atoms: _561  and  _562
REMARK  236  A    between atoms: _565  and  _567
REMARK  237  A    between atoms: _567  and  _568
REMARK  238  A    between atoms: _567  and  _570
REMARK  239  A    between atoms: _570  and  _571
REMARK  240  A    between atoms: _577  and  _579
REMARK  241  A    between atoms: _579  and  _580
REMARK  242  A    between atoms: _579  and  _582
REMARK  243  A    between atoms: _582  and  _583
REMARK  244  A    between atoms: _583  and  _584
REMARK  245  A    between atoms: _584  and  _585
REMARK  246  A    between atoms: _594  and  _596
REMARK  247  A    between atoms: _596  and  _597
REMARK  248  A    between atoms: _596  and  _599
REMARK  249  A    between atoms: _599  and  _600
REMARK  250  A    between atoms: _600  and  _601
REMARK  251  A    between atoms: _604  and  _606
REMARK  252  A    between atoms: _606  and  _607
REMARK  253  A    between atoms: _606  and  _609
REMARK  254  A    between atoms: _609  and  _610
REMARK  255  A    between atoms: _612  and  _614
REMARK  256  A    between atoms: _614  and  _615
REMARK  257  A    between atoms: _614  and  _617
REMARK  258  A    between atoms: _617  and  _618
REMARK  259  A    between atoms: _621  and  _623
REMARK  260  A    between atoms: _623  and  _624
REMARK  261  A    between atoms: _623  and  _626
REMARK  262  A    between atoms: _629  and  _631
REMARK  263  A    between atoms: _631  and  _632
REMARK  264  A    between atoms: _631  and  _634
REMARK  265  A    between atoms: _634  and  _635
REMARK  266  A    between atoms: _635  and  _636
REMARK  267  A    between atoms: _639  and  _641
REMARK  268  A    between atoms: _641  and  _642
REMARK  269  A    between atoms: _641  and  _644
REMARK  270  A    between atoms: _644  and  _645
REMARK  271  A    between atoms: _651  and  _653
REMARK  272  A    between atoms: _653  and  _654
REMARK  273  A    between atoms: _653  and  _656
REMARK  274  A    between atoms: _656  and  _657
REMARK  275  A    between atoms: _660  and  _662
REMARK  276  A    between atoms: _662  and  _663
REMARK  277  A    between atoms: _662  and  _665
REMARK  278  A    between atoms: _665  and  _666
REMARK                            x       y       z     vdW  Elec       q    Type
REMARK                         _______ _______ _______ _____ _____    ______ ____
ROOT
ATOM      1  O   HOH     1      -9.254  63.187   5.282  0.00  0.00    +0.000 OA
ENDROOT
TORSDOF 0
