REMARK  Name = ../refined-set-2016/3ebo/3ebo_pocket.pdb
REMARK  121 active torsions:
REMARK  status: ('A' for Active; 'I' for Inactive)
REMARK    1  A    between atoms: _2  and  _3
REMARK    2  A    between atoms: _8  and  _10
REMARK    3  A    between atoms: _10  and  _11
REMARK    4  A    between atoms: _10  and  _13
REMARK    5  A    between atoms: _13  and  _14
REMARK    6  A    between atoms: _19  and  _21
REMARK    7  A    between atoms: _21  and  _22
REMARK    8  A    between atoms: _21  and  _24
REMARK    9  A    between atoms: _24  and  _25
REMARK   10  A    between atoms: _28  and  _30
REMARK   11  A    between atoms: _30  and  _31
REMARK   12  A    between atoms: _30  and  _33
REMARK   13  A    between atoms: _33  and  _34
REMARK   14  A    between atoms: _39  and  _41
REMARK   15  A    between atoms: _41  and  _42
REMARK   16  A    between atoms: _41  and  _44
REMARK   17  A    between atoms: _44  and  _45
REMARK   18  A    between atoms: _51  and  _53
REMARK   19  A    between atoms: _53  and  _54
REMARK   20  A    between atoms: _53  and  _56
REMARK   21  A    between atoms: _56  and  _57
REMARK   22  A    between atoms: _63  and  _65
REMARK   23  A    between atoms: _65  and  _66
REMARK   24  A    between atoms: _65  and  _68
REMARK   25  A    between atoms: _68  and  _69
REMARK   26  A    between atoms: _69  and  _70
REMARK   27  A    between atoms: _73  and  _75
REMARK   28  A    between atoms: _75  and  _76
REMARK   29  A    between atoms: _75  and  _78
REMARK   30  A    between atoms: _78  and  _79
REMARK   31  A    between atoms: _82  and  _84
REMARK   32  A    between atoms: _84  and  _85
REMARK   33  A    between atoms: _84  and  _87
REMARK   34  A    between atoms: _87  and  _88
REMARK   35  A    between atoms: _92  and  _93
REMARK   36  A    between atoms: _98  and  _100
REMARK   37  A    between atoms: _100  and  _101
REMARK   38  A    between atoms: _100  and  _103
REMARK   39  A    between atoms: _103  and  _104
REMARK   40  A    between atoms: _104  and  _105
REMARK   41  A    between atoms: _108  and  _110
REMARK   42  A    between atoms: _110  and  _111
REMARK   43  A    between atoms: _114  and  _116
REMARK   44  A    between atoms: _116  and  _117
REMARK   45  A    between atoms: _116  and  _119
REMARK   46  A    between atoms: _119  and  _120
REMARK   47  A    between atoms: _123  and  _125
REMARK   48  A    between atoms: _125  and  _126
REMARK   49  A    between atoms: _125  and  _128
REMARK   50  A    between atoms: _128  and  _129
REMARK   51  A    between atoms: _129  and  _130
REMARK   52  A    between atoms: _130  and  _131
REMARK   53  A    between atoms: _140  and  _142
REMARK   54  A    between atoms: _142  and  _143
REMARK   55  A    between atoms: _142  and  _145
REMARK   56  A    between atoms: _145  and  _146
REMARK   57  A    between atoms: _149  and  _151
REMARK   58  A    between atoms: _151  and  _152
REMARK   59  A    between atoms: _151  and  _154
REMARK   60  A    between atoms: _154  and  _155
REMARK   61  A    between atoms: _160  and  _162
REMARK   62  A    between atoms: _162  and  _163
REMARK   63  A    between atoms: _162  and  _165
REMARK   64  A    between atoms: _165  and  _166
REMARK   65  A    between atoms: _166  and  _167
REMARK   66  A    between atoms: _170  and  _172
REMARK   67  A    between atoms: _172  and  _173
REMARK   68  A    between atoms: _172  and  _175
REMARK   69  A    between atoms: _175  and  _176
REMARK   70  A    between atoms: _181  and  _182
REMARK   71  A    between atoms: _184  and  _186
REMARK   72  A    between atoms: _186  and  _187
REMARK   73  A    between atoms: _186  and  _189
REMARK   74  A    between atoms: _189  and  _190
REMARK   75  A    between atoms: _190  and  _191
REMARK   76  A    between atoms: _191  and  _192
REMARK   77  A    between atoms: _192  and  _193
REMARK   78  A    between atoms: _197  and  _199
REMARK   79  A    between atoms: _199  and  _200
REMARK   80  A    between atoms: _203  and  _205
REMARK   81  A    between atoms: _205  and  _206
REMARK   82  A    between atoms: _210  and  _211
REMARK   83  A    between atoms: _216  and  _218
REMARK   84  A    between atoms: _218  and  _219
REMARK   85  A    between atoms: _221  and  _223
REMARK   86  A    between atoms: _223  and  _224
REMARK   87  A    between atoms: _223  and  _226
REMARK   88  A    between atoms: _226  and  _227
REMARK   89  A    between atoms: _232  and  _233
REMARK   90  A    between atoms: _235  and  _237
REMARK   91  A    between atoms: _237  and  _238
REMARK   92  A    between atoms: _237  and  _240
REMARK   93  A    between atoms: _240  and  _241
REMARK   94  A    between atoms: _246  and  _248
REMARK   95  A    between atoms: _248  and  _249
REMARK   96  A    between atoms: _248  and  _251
REMARK   97  A    between atoms: _251  and  _252
REMARK   98  A    between atoms: _252  and  _253
REMARK   99  A    between atoms: _255  and  _257
REMARK  100  A    between atoms: _257  and  _258
REMARK  101  A    between atoms: _261  and  _263
REMARK  102  A    between atoms: _263  and  _264
REMARK  103  A    between atoms: _263  and  _266
REMARK  104  A    between atoms: _266  and  _267
REMARK  105  A    between atoms: _267  and  _268
REMARK  106  A    between atoms: _268  and  _269
REMARK  107  A    between atoms: _269  and  _270
REMARK  108  A    between atoms: _274  and  _276
REMARK  109  A    between atoms: _276  and  _277
REMARK  110  A    between atoms: _276  and  _279
REMARK  111  A    between atoms: _279  and  _280
REMARK  112  A    between atoms: _283  and  _285
REMARK  113  A    between atoms: _285  and  _286
REMARK  114  A    between atoms: _285  and  _288
REMARK  115  A    between atoms: _288  and  _289
REMARK  116  A    between atoms: _289  and  _290
REMARK  117  A    between atoms: _290  and  _291
REMARK  118  A    between atoms: _300  and  _302
REMARK  119  A    between atoms: _302  and  _303
REMARK  120  A    between atoms: _302  and  _305
REMARK  121  A    between atoms: _305  and  _306
REMARK                            x       y       z     vdW  Elec       q    Type
REMARK                         _______ _______ _______ _____ _____    ______ ____
ROOT
ATOM      1  CA  ASN A   4      36.829  28.078  30.327  0.00  0.00    +0.158 C 
ENDROOT
BRANCH   1   2
ATOM      2  C   ASN A   4      37.825  29.223  30.552  0.00  0.00    +0.241 C 
ATOM      3  N   PHE A   5      38.181  29.443  31.815  0.00  0.00    -0.297 N 
ATOM      4  H   PHE A   5      37.764  28.855  32.565  0.00  0.00    +0.150 HD
ATOM      5  O   ASN A   4      38.245  29.896  29.606  0.00  0.00    -0.273 OA
BRANCH   3   6
ATOM      6  CA  PHE A   5      39.136  30.481  32.182  0.00  0.00    +0.153 C 
BRANCH   6   7
ATOM      7  C   PHE A   5      39.818  30.112  33.485  0.00  0.00    +0.241 C 
ATOM      8  O   PHE A   5      39.157  29.751  34.464  0.00  0.00    -0.273 OA
ATOM      9  N   PHE A   6      41.144  30.199  33.482  0.00  0.00    -0.297 N 
ATOM     10  H   PHE A   6      41.627  30.499  32.611  0.00  0.00    +0.150 HD
BRANCH   9  11
ATOM     11  CA  PHE A   6      41.941  29.887  34.659  0.00  0.00    +0.153 C 
BRANCH  11  12
ATOM     12  C   PHE A   6      42.203  31.149  35.480  0.00  0.00    +0.241 C 
ATOM     13  N   GLU A   7      41.840  31.085  36.755  0.00  0.00    -0.298 N 
ATOM     14  H   GLU A   7      41.311  30.250  37.080  0.00  0.00    +0.150 HD
ATOM     15  O   PHE A   6      42.696  32.152  34.960  0.00  0.00    -0.273 OA
BRANCH  13  16
ATOM     16  CA  GLU A   7      42.149  32.131  37.720  0.00  0.00    +0.137 C 
BRANCH  16  17
ATOM     17  C   GLU A   7      43.027  31.497  38.793  0.00  0.00    +0.227 C 
ATOM     18  O   GLU A   7      42.583  30.605  39.527  0.00  0.00    -0.286 OA
ENDBRANCH  16  17
BRANCH  16  19
ATOM     19  CB  GLU A   7      40.861  32.704  38.322  0.00  0.00    +0.039 C 
BRANCH  19  20
ATOM     20  CG  GLU A   7      41.023  34.095  38.923  0.00  0.00    +0.116 C 
BRANCH  20  21
ATOM     21  CD  GLU A   7      39.753  34.623  39.575  0.00  0.00    +0.365 C 
ATOM     22  OE2 GLU A   7      39.869  35.544  40.411  0.00  0.00    -0.246 OA
ATOM     23  OE1 GLU A   7      38.644  34.127  39.261  0.00  0.00    -0.246 OA
ENDBRANCH  20  21
ENDBRANCH  19  20
ENDBRANCH  16  19
ENDBRANCH  13  16
ENDBRANCH  11  12
BRANCH  11  24
ATOM     24  CB  PHE A   6      43.254  29.213  34.243  0.00  0.00    +0.055 C 
BRANCH  24  25
ATOM     25  CG  PHE A   6      44.244  29.042  35.368  0.00  0.00    -0.020 A 
ATOM     26  CD2 PHE A   6      43.924  28.291  36.493  0.00  0.00    -0.004 A 
ATOM     27  CE2 PHE A   6      44.840  28.129  37.528  0.00  0.00    -0.000 A 
ATOM     28  CZ  PHE A   6      46.096  28.723  37.442  0.00  0.00    -0.000 A 
ATOM     29  CE1 PHE A   6      46.430  29.478  36.327  0.00  0.00    -0.000 A 
ATOM     30  CD1 PHE A   6      45.504  29.634  35.292  0.00  0.00    -0.004 A 
ENDBRANCH  24  25
ENDBRANCH  11  24
ENDBRANCH   9  11
ENDBRANCH   6   7
BRANCH   6  31
ATOM     31  CB  PHE A   5      38.435  31.836  32.314  0.00  0.00    +0.055 C 
BRANCH  31  32
ATOM     32  CG  PHE A   5      39.369  32.993  32.567  0.00  0.00    -0.020 A 
ATOM     33  CD2 PHE A   5      39.381  33.632  33.801  0.00  0.00    -0.004 A 
ATOM     34  CE2 PHE A   5      40.230  34.712  34.041  0.00  0.00    -0.000 A 
ATOM     35  CZ  PHE A   5      41.076  35.166  33.035  0.00  0.00    -0.000 A 
ATOM     36  CE1 PHE A   5      41.066  34.540  31.789  0.00  0.00    -0.000 A 
ATOM     37  CD1 PHE A   5      40.211  33.464  31.561  0.00  0.00    -0.004 A 
ENDBRANCH  31  32
ENDBRANCH   6  31
ENDBRANCH   3   6
ENDBRANCH   1   2
BRANCH   1  39
ATOM     38  C   ASP A   3      34.949  29.256  31.378  0.00  0.00    +0.241 C 
ATOM     39  N   ASN A   4      35.668  28.145  31.230  0.00  0.00    -0.297 N 
ATOM     40  H   ASN A   4      35.401  27.297  31.770  0.00  0.00    +0.150 HD
ATOM     41  O   ASP A   3      35.187  30.303  30.767  0.00  0.00    -0.273 OA
BRANCH  38  42
ATOM     42  CA  ASP A   3      33.801  29.192  32.369  0.00  0.00    +0.160 C 
BRANCH  42  45
ATOM     43  C   ASN A   2      34.390  29.917  34.618  0.00  0.00    +0.241 C 
ATOM     44  O   ASN A   2      34.538  28.763  35.020  0.00  0.00    -0.273 OA
ATOM     45  N   ASP A   3      34.038  30.217  33.374  0.00  0.00    -0.297 N 
ATOM     46  H   ASP A   3      33.928  31.217  33.109  0.00  0.00    +0.150 HD
BRANCH  43  47
ATOM     47  CA  ASN A   2      34.623  31.102  35.543  0.00  0.00    +0.158 C 
BRANCH  47  49
ATOM     48  C   PRO A   1      32.739  31.572  37.041  0.00  0.00    +0.239 C 
ATOM     49  N   ASN A   2      33.915  30.987  36.814  0.00  0.00    -0.297 N 
ATOM     50  H   ASN A   2      34.346  30.425  37.575  0.00  0.00    +0.150 HD
ATOM     51  O   PRO A   1      32.127  32.223  36.188  0.00  0.00    -0.274 OA
BRANCH  48  56
ATOM     52  N   PRO A   1      33.113  31.202  39.512  0.00  0.00    -0.210 NA
ATOM     53  CD  PRO A   1      33.432  32.480  40.181  0.00  0.00    +0.089 C 
ATOM     54  CG  PRO A   1      32.438  33.451  39.595  0.00  0.00    +0.021 C 
ATOM     55  CB  PRO A   1      31.389  32.646  38.876  0.00  0.00    +0.028 C 
ATOM     56  CA  PRO A   1      32.133  31.384  38.438  0.00  0.00    +0.149 C 
ENDBRANCH  48  56
ENDBRANCH  47  49
BRANCH  47  57
ATOM     57  CB  ASN A   2      36.127  31.258  35.789  0.00  0.00    +0.114 C 
BRANCH  57  58
ATOM     58  CG  ASN A   2      36.450  32.453  36.661  0.00  0.00    +0.222 C 
ATOM     59  ND2 ASN A   2      37.406  32.278  37.565  0.00  0.00    -0.329 N 
ATOM     60 HD21 ASN A   2      37.674  33.060  38.196  0.00  0.00    +0.145 HD
ATOM     61 HD22 ASN A   2      37.887  31.359  37.642  0.00  0.00    +0.145 HD
ATOM     62  OD1 ASN A   2      35.845  33.522  36.525  0.00  0.00    -0.275 OA
ENDBRANCH  57  58
ENDBRANCH  47  57
ENDBRANCH  43  47
ENDBRANCH  42  45
BRANCH  42  63
ATOM     63  CB  ASP A   3      32.461  29.444  31.666  0.00  0.00    +0.143 C 
BRANCH  63  64
ATOM     64  CG  ASP A   3      32.120  28.370  30.645  0.00  0.00    +0.367 C 
ATOM     65  OD2 ASP A   3      31.562  27.321  31.038  0.00  0.00    -0.246 OA
ATOM     66  OD1 ASP A   3      32.396  28.584  29.444  0.00  0.00    -0.246 OA
ENDBRANCH  63  64
ENDBRANCH  42  63
ENDBRANCH  38  42
ENDBRANCH   1  39
BRANCH   1  67
ATOM     67  CB  ASN A   4      36.381  28.035  28.857  0.00  0.00    +0.114 C 
BRANCH  67  68
ATOM     68  CG  ASN A   4      36.176  26.621  28.348  0.00  0.00    +0.222 C 
ATOM     69  OD1 ASN A   4      36.441  25.644  29.055  0.00  0.00    -0.275 OA
ATOM     70  ND2 ASN A   4      35.715  26.502  27.113  0.00  0.00    -0.329 N 
ATOM     71 HD21 ASN A   4      35.563  25.558  26.703  0.00  0.00    +0.145 HD
ATOM     72 HD22 ASN A   4      35.505  27.352  26.552  0.00  0.00    +0.145 HD
ENDBRANCH  67  68
ENDBRANCH   1  67
TORSDOF 26
REMARK  Name = ../refined-set-2016/3ebo/3ebo_pocket.pdb
REMARK  121 active torsions:
REMARK  status: ('A' for Active; 'I' for Inactive)
REMARK    1  A    between atoms: _2  and  _3
REMARK    2  A    between atoms: _8  and  _10
REMARK    3  A    between atoms: _10  and  _11
REMARK    4  A    between atoms: _10  and  _13
REMARK    5  A    between atoms: _13  and  _14
REMARK    6  A    between atoms: _19  and  _21
REMARK    7  A    between atoms: _21  and  _22
REMARK    8  A    between atoms: _21  and  _24
REMARK    9  A    between atoms: _24  and  _25
REMARK   10  A    between atoms: _28  and  _30
REMARK   11  A    between atoms: _30  and  _31
REMARK   12  A    between atoms: _30  and  _33
REMARK   13  A    between atoms: _33  and  _34
REMARK   14  A    between atoms: _39  and  _41
REMARK   15  A    between atoms: _41  and  _42
REMARK   16  A    between atoms: _41  and  _44
REMARK   17  A    between atoms: _44  and  _45
REMARK   18  A    between atoms: _51  and  _53
REMARK   19  A    between atoms: _53  and  _54
REMARK   20  A    between atoms: _53  and  _56
REMARK   21  A    between atoms: _56  and  _57
REMARK   22  A    between atoms: _63  and  _65
REMARK   23  A    between atoms: _65  and  _66
REMARK   24  A    between atoms: _65  and  _68
REMARK   25  A    between atoms: _68  and  _69
REMARK   26  A    between atoms: _69  and  _70
REMARK   27  A    between atoms: _73  and  _75
REMARK   28  A    between atoms: _75  and  _76
REMARK   29  A    between atoms: _75  and  _78
REMARK   30  A    between atoms: _78  and  _79
REMARK   31  A    between atoms: _82  and  _84
REMARK   32  A    between atoms: _84  and  _85
REMARK   33  A    between atoms: _84  and  _87
REMARK   34  A    between atoms: _87  and  _88
REMARK   35  A    between atoms: _92  and  _93
REMARK   36  A    between atoms: _98  and  _100
REMARK   37  A    between atoms: _100  and  _101
REMARK   38  A    between atoms: _100  and  _103
REMARK   39  A    between atoms: _103  and  _104
REMARK   40  A    between atoms: _104  and  _105
REMARK   41  A    between atoms: _108  and  _110
REMARK   42  A    between atoms: _110  and  _111
REMARK   43  A    between atoms: _114  and  _116
REMARK   44  A    between atoms: _116  and  _117
REMARK   45  A    between atoms: _116  and  _119
REMARK   46  A    between atoms: _119  and  _120
REMARK   47  A    between atoms: _123  and  _125
REMARK   48  A    between atoms: _125  and  _126
REMARK   49  A    between atoms: _125  and  _128
REMARK   50  A    between atoms: _128  and  _129
REMARK   51  A    between atoms: _129  and  _130
REMARK   52  A    between atoms: _130  and  _131
REMARK   53  A    between atoms: _140  and  _142
REMARK   54  A    between atoms: _142  and  _143
REMARK   55  A    between atoms: _142  and  _145
REMARK   56  A    between atoms: _145  and  _146
REMARK   57  A    between atoms: _149  and  _151
REMARK   58  A    between atoms: _151  and  _152
REMARK   59  A    between atoms: _151  and  _154
REMARK   60  A    between atoms: _154  and  _155
REMARK   61  A    between atoms: _160  and  _162
REMARK   62  A    between atoms: _162  and  _163
REMARK   63  A    between atoms: _162  and  _165
REMARK   64  A    between atoms: _165  and  _166
REMARK   65  A    between atoms: _166  and  _167
REMARK   66  A    between atoms: _170  and  _172
REMARK   67  A    between atoms: _172  and  _173
REMARK   68  A    between atoms: _172  and  _175
REMARK   69  A    between atoms: _175  and  _176
REMARK   70  A    between atoms: _181  and  _182
REMARK   71  A    between atoms: _184  and  _186
REMARK   72  A    between atoms: _186  and  _187
REMARK   73  A    between atoms: _186  and  _189
REMARK   74  A    between atoms: _189  and  _190
REMARK   75  A    between atoms: _190  and  _191
REMARK   76  A    between atoms: _191  and  _192
REMARK   77  A    between atoms: _192  and  _193
REMARK   78  A    between atoms: _197  and  _199
REMARK   79  A    between atoms: _199  and  _200
REMARK   80  A    between atoms: _203  and  _205
REMARK   81  A    between atoms: _205  and  _206
REMARK   82  A    between atoms: _210  and  _211
REMARK   83  A    between atoms: _216  and  _218
REMARK   84  A    between atoms: _218  and  _219
REMARK   85  A    between atoms: _221  and  _223
REMARK   86  A    between atoms: _223  and  _224
REMARK   87  A    between atoms: _223  and  _226
REMARK   88  A    between atoms: _226  and  _227
REMARK   89  A    between atoms: _232  and  _233
REMARK   90  A    between atoms: _235  and  _237
REMARK   91  A    between atoms: _237  and  _238
REMARK   92  A    between atoms: _237  and  _240
REMARK   93  A    between atoms: _240  and  _241
REMARK   94  A    between atoms: _246  and  _248
REMARK   95  A    between atoms: _248  and  _249
REMARK   96  A    between atoms: _248  and  _251
REMARK   97  A    between atoms: _251  and  _252
REMARK   98  A    between atoms: _252  and  _253
REMARK   99  A    between atoms: _255  and  _257
REMARK  100  A    between atoms: _257  and  _258
REMARK  101  A    between atoms: _261  and  _263
REMARK  102  A    between atoms: _263  and  _264
REMARK  103  A    between atoms: _263  and  _266
REMARK  104  A    between atoms: _266  and  _267
REMARK  105  A    between atoms: _267  and  _268
REMARK  106  A    between atoms: _268  and  _269
REMARK  107  A    between atoms: _269  and  _270
REMARK  108  A    between atoms: _274  and  _276
REMARK  109  A    between atoms: _276  and  _277
REMARK  110  A    between atoms: _276  and  _279
REMARK  111  A    between atoms: _279  and  _280
REMARK  112  A    between atoms: _283  and  _285
REMARK  113  A    between atoms: _285  and  _286
REMARK  114  A    between atoms: _285  and  _288
REMARK  115  A    between atoms: _288  and  _289
REMARK  116  A    between atoms: _289  and  _290
REMARK  117  A    between atoms: _290  and  _291
REMARK  118  A    between atoms: _300  and  _302
REMARK  119  A    between atoms: _302  and  _303
REMARK  120  A    between atoms: _302  and  _305
REMARK  121  A    between atoms: _305  and  _306
REMARK                            x       y       z     vdW  Elec       q    Type
REMARK                         _______ _______ _______ _____ _____    ______ ____
ROOT
ATOM      1  CA  THR A   1      39.524  22.987  25.535  0.00  0.00    +0.160 C 
ENDROOT
BRANCH   1   2
ATOM      2  N   THR A   1      39.300  21.795  26.364  0.00  0.00    -0.237 NA
ATOM      3  H   THR A   1      40.116  21.310  26.789  0.00  0.00    +0.142 HD
ENDBRANCH   1   2
BRANCH   1   4
ATOM      4  CB  THR A   1      39.003  24.287  26.222  0.00  0.00    +0.134 C 
ATOM      5  CG2 THR A   1      39.699  24.538  27.562  0.00  0.00    +0.034 C 
BRANCH   4   6
ATOM      6  OG1 THR A   1      39.181  25.417  25.353  0.00  0.00    -0.383 OA
ATOM      7  HG1 THR A   1      38.676  25.270  24.514  0.00  0.00    +0.210 HD
ENDBRANCH   4   6
ENDBRANCH   1   4
BRANCH   1   8
ATOM      8  C   THR A   1      40.991  23.146  25.141  0.00  0.00    +0.227 C 
ATOM      9  O   THR A   1      41.884  22.689  25.854  0.00  0.00    -0.287 OA
ENDBRANCH   1   8
TORSDOF 4
REMARK  Name = ../refined-set-2016/3ebo/3ebo_pocket.pdb
REMARK  121 active torsions:
REMARK  status: ('A' for Active; 'I' for Inactive)
REMARK    1  A    between atoms: _2  and  _3
REMARK    2  A    between atoms: _8  and  _10
REMARK    3  A    between atoms: _10  and  _11
REMARK    4  A    between atoms: _10  and  _13
REMARK    5  A    between atoms: _13  and  _14
REMARK    6  A    between atoms: _19  and  _21
REMARK    7  A    between atoms: _21  and  _22
REMARK    8  A    between atoms: _21  and  _24
REMARK    9  A    between atoms: _24  and  _25
REMARK   10  A    between atoms: _28  and  _30
REMARK   11  A    between atoms: _30  and  _31
REMARK   12  A    between atoms: _30  and  _33
REMARK   13  A    between atoms: _33  and  _34
REMARK   14  A    between atoms: _39  and  _41
REMARK   15  A    between atoms: _41  and  _42
REMARK   16  A    between atoms: _41  and  _44
REMARK   17  A    between atoms: _44  and  _45
REMARK   18  A    between atoms: _51  and  _53
REMARK   19  A    between atoms: _53  and  _54
REMARK   20  A    between atoms: _53  and  _56
REMARK   21  A    between atoms: _56  and  _57
REMARK   22  A    between atoms: _63  and  _65
REMARK   23  A    between atoms: _65  and  _66
REMARK   24  A    between atoms: _65  and  _68
REMARK   25  A    between atoms: _68  and  _69
REMARK   26  A    between atoms: _69  and  _70
REMARK   27  A    between atoms: _73  and  _75
REMARK   28  A    between atoms: _75  and  _76
REMARK   29  A    between atoms: _75  and  _78
REMARK   30  A    between atoms: _78  and  _79
REMARK   31  A    between atoms: _82  and  _84
REMARK   32  A    between atoms: _84  and  _85
REMARK   33  A    between atoms: _84  and  _87
REMARK   34  A    between atoms: _87  and  _88
REMARK   35  A    between atoms: _92  and  _93
REMARK   36  A    between atoms: _98  and  _100
REMARK   37  A    between atoms: _100  and  _101
REMARK   38  A    between atoms: _100  and  _103
REMARK   39  A    between atoms: _103  and  _104
REMARK   40  A    between atoms: _104  and  _105
REMARK   41  A    between atoms: _108  and  _110
REMARK   42  A    between atoms: _110  and  _111
REMARK   43  A    between atoms: _114  and  _116
REMARK   44  A    between atoms: _116  and  _117
REMARK   45  A    between atoms: _116  and  _119
REMARK   46  A    between atoms: _119  and  _120
REMARK   47  A    between atoms: _123  and  _125
REMARK   48  A    between atoms: _125  and  _126
REMARK   49  A    between atoms: _125  and  _128
REMARK   50  A    between atoms: _128  and  _129
REMARK   51  A    between atoms: _129  and  _130
REMARK   52  A    between atoms: _130  and  _131
REMARK   53  A    between atoms: _140  and  _142
REMARK   54  A    between atoms: _142  and  _143
REMARK   55  A    between atoms: _142  and  _145
REMARK   56  A    between atoms: _145  and  _146
REMARK   57  A    between atoms: _149  and  _151
REMARK   58  A    between atoms: _151  and  _152
REMARK   59  A    between atoms: _151  and  _154
REMARK   60  A    between atoms: _154  and  _155
REMARK   61  A    between atoms: _160  and  _162
REMARK   62  A    between atoms: _162  and  _163
REMARK   63  A    between atoms: _162  and  _165
REMARK   64  A    between atoms: _165  and  _166
REMARK   65  A    between atoms: _166  and  _167
REMARK   66  A    between atoms: _170  and  _172
REMARK   67  A    between atoms: _172  and  _173
REMARK   68  A    between atoms: _172  and  _175
REMARK   69  A    between atoms: _175  and  _176
REMARK   70  A    between atoms: _181  and  _182
REMARK   71  A    between atoms: _184  and  _186
REMARK   72  A    between atoms: _186  and  _187
REMARK   73  A    between atoms: _186  and  _189
REMARK   74  A    between atoms: _189  and  _190
REMARK   75  A    between atoms: _190  and  _191
REMARK   76  A    between atoms: _191  and  _192
REMARK   77  A    between atoms: _192  and  _193
REMARK   78  A    between atoms: _197  and  _199
REMARK   79  A    between atoms: _199  and  _200
REMARK   80  A    between atoms: _203  and  _205
REMARK   81  A    between atoms: _205  and  _206
REMARK   82  A    between atoms: _210  and  _211
REMARK   83  A    between atoms: _216  and  _218
REMARK   84  A    between atoms: _218  and  _219
REMARK   85  A    between atoms: _221  and  _223
REMARK   86  A    between atoms: _223  and  _224
REMARK   87  A    between atoms: _223  and  _226
REMARK   88  A    between atoms: _226  and  _227
REMARK   89  A    between atoms: _232  and  _233
REMARK   90  A    between atoms: _235  and  _237
REMARK   91  A    between atoms: _237  and  _238
REMARK   92  A    between atoms: _237  and  _240
REMARK   93  A    between atoms: _240  and  _241
REMARK   94  A    between atoms: _246  and  _248
REMARK   95  A    between atoms: _248  and  _249
REMARK   96  A    between atoms: _248  and  _251
REMARK   97  A    between atoms: _251  and  _252
REMARK   98  A    between atoms: _252  and  _253
REMARK   99  A    between atoms: _255  and  _257
REMARK  100  A    between atoms: _257  and  _258
REMARK  101  A    between atoms: _261  and  _263
REMARK  102  A    between atoms: _263  and  _264
REMARK  103  A    between atoms: _263  and  _266
REMARK  104  A    between atoms: _266  and  _267
REMARK  105  A    between atoms: _267  and  _268
REMARK  106  A    between atoms: _268  and  _269
REMARK  107  A    between atoms: _269  and  _270
REMARK  108  A    between atoms: _274  and  _276
REMARK  109  A    between atoms: _276  and  _277
REMARK  110  A    between atoms: _276  and  _279
REMARK  111  A    between atoms: _279  and  _280
REMARK  112  A    between atoms: _283  and  _285
REMARK  113  A    between atoms: _285  and  _286
REMARK  114  A    between atoms: _285  and  _288
REMARK  115  A    between atoms: _288  and  _289
REMARK  116  A    between atoms: _289  and  _290
REMARK  117  A    between atoms: _290  and  _291
REMARK  118  A    between atoms: _300  and  _302
REMARK  119  A    between atoms: _302  and  _303
REMARK  120  A    between atoms: _302  and  _305
REMARK  121  A    between atoms: _305  and  _306
REMARK                            x       y       z     vdW  Elec       q    Type
REMARK                         _______ _______ _______ _____ _____    ______ ____
ROOT
ATOM      1  CA  GLU A   3      43.466  31.145  28.945  0.00  0.00    +0.149 C 
ENDROOT
BRANCH   1   4
ATOM      2  C   PRO A   2      44.852  29.647  27.631  0.00  0.00    +0.241 C 
ATOM      3  O   PRO A   2      45.428  29.259  28.641  0.00  0.00    -0.273 OA
ATOM      4  N   GLU A   3      43.858  30.529  27.672  0.00  0.00    -0.297 N 
ATOM      5  H   GLU A   3      43.356  30.784  26.798  0.00  0.00    +0.150 HD
BRANCH   2   9
ATOM      6  C   LEU A   1      43.097  28.057  25.631  0.00  0.00    +0.241 C 
ATOM      7  O   LEU A   1      42.908  27.577  26.752  0.00  0.00    -0.273 OA
ATOM      8  N   PRO A   2      44.161  28.836  25.330  0.00  0.00    -0.272 N 
ATOM      9  CA  PRO A   2      45.267  29.090  26.268  0.00  0.00    +0.152 C 
ATOM     10  CB  PRO A   2      46.164  30.096  25.520  0.00  0.00    +0.031 C 
ATOM     11  CG  PRO A   2      45.366  30.584  24.362  0.00  0.00    +0.024 C 
ATOM     12  CD  PRO A   2      44.380  29.500  24.031  0.00  0.00    +0.094 C 
BRANCH   6  13
ATOM     13  CA  LEU A   1      42.099  27.780  24.503  0.00  0.00    +0.145 C 
BRANCH  13  14
ATOM     14  N   LEU A   1      41.916  26.344  24.275  0.00  0.00    -0.238 NA
ATOM     15  H   LEU A   1      40.997  25.908  24.494  0.00  0.00    +0.142 HD
ENDBRANCH  13  14
BRANCH  13  16
ATOM     16  CB  LEU A   1      40.762  28.467  24.792  0.00  0.00    +0.026 C 
BRANCH  16  17
ATOM     17  CG  LEU A   1      39.708  28.442  23.676  0.00  0.00    +0.002 C 
ATOM     18  CD2 LEU A   1      38.375  28.918  24.222  0.00  0.00    +0.000 C 
ATOM     19  CD1 LEU A   1      40.128  29.264  22.451  0.00  0.00    +0.000 C 
ENDBRANCH  16  17
ENDBRANCH  13  16
ENDBRANCH   6  13
ENDBRANCH   2   9
ENDBRANCH   1   4
BRANCH   1  20
ATOM     20  C   GLU A   3      42.731  30.222  29.919  0.00  0.00    +0.241 C 
ATOM     21  O   GLU A   3      42.542  30.576  31.084  0.00  0.00    -0.273 OA
ATOM     22  N   ALA A   4      42.347  29.037  29.450  0.00  0.00    -0.297 N 
ATOM     23  H   ALA A   4      42.511  28.812  28.448  0.00  0.00    +0.150 HD
BRANCH  22  24
ATOM     24  CA  ALA A   4      41.700  28.042  30.306  0.00  0.00    +0.149 C 
ATOM     25  CB  ALA A   4      40.627  27.296  29.528  0.00  0.00    +0.031 C 
BRANCH  24  26
ATOM     26  C   ALA A   4      42.693  27.052  30.918  0.00  0.00    +0.241 C 
ATOM     27  O   ALA A   4      42.341  26.294  31.824  0.00  0.00    -0.273 OA
ATOM     28  N   LEU A   5      43.931  27.060  30.424  0.00  0.00    -0.298 N 
ATOM     29  H   LEU A   5      44.192  27.778  29.718  0.00  0.00    +0.150 HD
BRANCH  28  30
ATOM     30  CA  LEU A   5      44.930  26.082  30.852  0.00  0.00    +0.137 C 
BRANCH  30  31
ATOM     31  C   LEU A   5      45.492  26.416  32.233  0.00  0.00    +0.227 C 
ATOM     32  O   LEU A   5      45.937  27.536  32.480  0.00  0.00    -0.286 OA
ENDBRANCH  30  31
BRANCH  30  33
ATOM     33  CB  LEU A   5      46.066  25.960  29.827  0.00  0.00    +0.028 C 
BRANCH  33  34
ATOM     34  CG  LEU A   5      45.807  25.636  28.347  0.00  0.00    +0.002 C 
ATOM     35  CD2 LEU A   5      44.613  24.698  28.076  0.00  0.00    +0.000 C 
ATOM     36  CD1 LEU A   5      47.086  25.051  27.743  0.00  0.00    +0.000 C 
ENDBRANCH  33  34
ENDBRANCH  30  33
ENDBRANCH  28  30
ENDBRANCH  24  26
ENDBRANCH  22  24
ENDBRANCH   1  20
BRANCH   1  37
ATOM     37  CB  GLU A   3      42.691  32.457  28.752  0.00  0.00    +0.041 C 
BRANCH  37  38
ATOM     38  CG  GLU A   3      41.750  32.493  27.582  0.00  0.00    +0.116 C 
BRANCH  38  39
ATOM     39  CD  GLU A   3      42.447  32.823  26.280  0.00  0.00    +0.365 C 
ATOM     40  OE2 GLU A   3      42.917  33.966  26.113  0.00  0.00    -0.246 OA
ATOM     41  OE1 GLU A   3      42.515  31.934  25.417  0.00  0.00    -0.246 OA
ENDBRANCH  38  39
ENDBRANCH  37  38
ENDBRANCH   1  37
TORSDOF 16
REMARK  Name = ../refined-set-2016/3ebo/3ebo_pocket.pdb
REMARK  121 active torsions:
REMARK  status: ('A' for Active; 'I' for Inactive)
REMARK    1  A    between atoms: _2  and  _3
REMARK    2  A    between atoms: _8  and  _10
REMARK    3  A    between atoms: _10  and  _11
REMARK    4  A    between atoms: _10  and  _13
REMARK    5  A    between atoms: _13  and  _14
REMARK    6  A    between atoms: _19  and  _21
REMARK    7  A    between atoms: _21  and  _22
REMARK    8  A    between atoms: _21  and  _24
REMARK    9  A    between atoms: _24  and  _25
REMARK   10  A    between atoms: _28  and  _30
REMARK   11  A    between atoms: _30  and  _31
REMARK   12  A    between atoms: _30  and  _33
REMARK   13  A    between atoms: _33  and  _34
REMARK   14  A    between atoms: _39  and  _41
REMARK   15  A    between atoms: _41  and  _42
REMARK   16  A    between atoms: _41  and  _44
REMARK   17  A    between atoms: _44  and  _45
REMARK   18  A    between atoms: _51  and  _53
REMARK   19  A    between atoms: _53  and  _54
REMARK   20  A    between atoms: _53  and  _56
REMARK   21  A    between atoms: _56  and  _57
REMARK   22  A    between atoms: _63  and  _65
REMARK   23  A    between atoms: _65  and  _66
REMARK   24  A    between atoms: _65  and  _68
REMARK   25  A    between atoms: _68  and  _69
REMARK   26  A    between atoms: _69  and  _70
REMARK   27  A    between atoms: _73  and  _75
REMARK   28  A    between atoms: _75  and  _76
REMARK   29  A    between atoms: _75  and  _78
REMARK   30  A    between atoms: _78  and  _79
REMARK   31  A    between atoms: _82  and  _84
REMARK   32  A    between atoms: _84  and  _85
REMARK   33  A    between atoms: _84  and  _87
REMARK   34  A    between atoms: _87  and  _88
REMARK   35  A    between atoms: _92  and  _93
REMARK   36  A    between atoms: _98  and  _100
REMARK   37  A    between atoms: _100  and  _101
REMARK   38  A    between atoms: _100  and  _103
REMARK   39  A    between atoms: _103  and  _104
REMARK   40  A    between atoms: _104  and  _105
REMARK   41  A    between atoms: _108  and  _110
REMARK   42  A    between atoms: _110  and  _111
REMARK   43  A    between atoms: _114  and  _116
REMARK   44  A    between atoms: _116  and  _117
REMARK   45  A    between atoms: _116  and  _119
REMARK   46  A    between atoms: _119  and  _120
REMARK   47  A    between atoms: _123  and  _125
REMARK   48  A    between atoms: _125  and  _126
REMARK   49  A    between atoms: _125  and  _128
REMARK   50  A    between atoms: _128  and  _129
REMARK   51  A    between atoms: _129  and  _130
REMARK   52  A    between atoms: _130  and  _131
REMARK   53  A    between atoms: _140  and  _142
REMARK   54  A    between atoms: _142  and  _143
REMARK   55  A    between atoms: _142  and  _145
REMARK   56  A    between atoms: _145  and  _146
REMARK   57  A    between atoms: _149  and  _151
REMARK   58  A    between atoms: _151  and  _152
REMARK   59  A    between atoms: _151  and  _154
REMARK   60  A    between atoms: _154  and  _155
REMARK   61  A    between atoms: _160  and  _162
REMARK   62  A    between atoms: _162  and  _163
REMARK   63  A    between atoms: _162  and  _165
REMARK   64  A    between atoms: _165  and  _166
REMARK   65  A    between atoms: _166  and  _167
REMARK   66  A    between atoms: _170  and  _172
REMARK   67  A    between atoms: _172  and  _173
REMARK   68  A    between atoms: _172  and  _175
REMARK   69  A    between atoms: _175  and  _176
REMARK   70  A    between atoms: _181  and  _182
REMARK   71  A    between atoms: _184  and  _186
REMARK   72  A    between atoms: _186  and  _187
REMARK   73  A    between atoms: _186  and  _189
REMARK   74  A    between atoms: _189  and  _190
REMARK   75  A    between atoms: _190  and  _191
REMARK   76  A    between atoms: _191  and  _192
REMARK   77  A    between atoms: _192  and  _193
REMARK   78  A    between atoms: _197  and  _199
REMARK   79  A    between atoms: _199  and  _200
REMARK   80  A    between atoms: _203  and  _205
REMARK   81  A    between atoms: _205  and  _206
REMARK   82  A    between atoms: _210  and  _211
REMARK   83  A    between atoms: _216  and  _218
REMARK   84  A    between atoms: _218  and  _219
REMARK   85  A    between atoms: _221  and  _223
REMARK   86  A    between atoms: _223  and  _224
REMARK   87  A    between atoms: _223  and  _226
REMARK   88  A    between atoms: _226  and  _227
REMARK   89  A    between atoms: _232  and  _233
REMARK   90  A    between atoms: _235  and  _237
REMARK   91  A    between atoms: _237  and  _238
REMARK   92  A    between atoms: _237  and  _240
REMARK   93  A    between atoms: _240  and  _241
REMARK   94  A    between atoms: _246  and  _248
REMARK   95  A    between atoms: _248  and  _249
REMARK   96  A    between atoms: _248  and  _251
REMARK   97  A    between atoms: _251  and  _252
REMARK   98  A    between atoms: _252  and  _253
REMARK   99  A    between atoms: _255  and  _257
REMARK  100  A    between atoms: _257  and  _258
REMARK  101  A    between atoms: _261  and  _263
REMARK  102  A    between atoms: _263  and  _264
REMARK  103  A    between atoms: _263  and  _266
REMARK  104  A    between atoms: _266  and  _267
REMARK  105  A    between atoms: _267  and  _268
REMARK  106  A    between atoms: _268  and  _269
REMARK  107  A    between atoms: _269  and  _270
REMARK  108  A    between atoms: _274  and  _276
REMARK  109  A    between atoms: _276  and  _277
REMARK  110  A    between atoms: _276  and  _279
REMARK  111  A    between atoms: _279  and  _280
REMARK  112  A    between atoms: _283  and  _285
REMARK  113  A    between atoms: _285  and  _286
REMARK  114  A    between atoms: _285  and  _288
REMARK  115  A    between atoms: _288  and  _289
REMARK  116  A    between atoms: _289  and  _290
REMARK  117  A    between atoms: _290  and  _291
REMARK  118  A    between atoms: _300  and  _302
REMARK  119  A    between atoms: _302  and  _303
REMARK  120  A    between atoms: _302  and  _305
REMARK  121  A    between atoms: _305  and  _306
REMARK                            x       y       z     vdW  Elec       q    Type
REMARK                         _______ _______ _______ _____ _____    ______ ____
ROOT
ATOM      1  C   HIS A   3      32.415  35.138  24.231  0.00  0.00    +0.241 C 
ATOM      2  N   GLU A   4      33.646  35.621  24.090  0.00  0.00    -0.297 N 
ATOM      3  H   GLU A   4      34.283  35.657  24.912  0.00  0.00    +0.150 HD
ATOM      4  O   HIS A   3      31.551  35.244  23.360  0.00  0.00    -0.273 OA
ENDROOT
BRANCH   2   5
ATOM      5  CA  GLU A   4      34.112  36.102  22.792  0.00  0.00    +0.149 C 
BRANCH   5   6
ATOM      6  C   GLU A   4      34.189  34.955  21.785  0.00  0.00    +0.241 C 
ATOM      7  N   TYR A   5      34.683  33.793  22.217  0.00  0.00    -0.297 N 
ATOM      8  H   TYR A   5      34.950  33.681  23.216  0.00  0.00    +0.150 HD
ATOM      9  O   GLU A   4      33.777  35.115  20.634  0.00  0.00    -0.273 OA
BRANCH   7  10
ATOM     10  CA  TYR A   5      34.850  32.673  21.283  0.00  0.00    +0.153 C 
BRANCH  10  11
ATOM     11  C   TYR A   5      33.539  32.092  20.765  0.00  0.00    +0.241 C 
ATOM     12  N   LYS A   6      32.492  32.146  21.589  0.00  0.00    -0.298 N 
ATOM     13  H   LYS A   6      32.623  32.561  22.533  0.00  0.00    +0.150 HD
ATOM     14  O   TYR A   5      33.494  31.610  19.633  0.00  0.00    -0.273 OA
BRANCH  12  15
ATOM     15  CA  LYS A   6      31.161  31.644  21.220  0.00  0.00    +0.137 C 
BRANCH  15  16
ATOM     16  C   LYS A   6      30.399  32.613  20.298  0.00  0.00    +0.227 C 
ATOM     17  O   LYS A   6      29.401  32.241  19.678  0.00  0.00    -0.286 OA
ENDBRANCH  15  16
BRANCH  15  18
ATOM     18  CB  LYS A   6      30.337  31.320  22.473  0.00  0.00    +0.028 C 
BRANCH  18  19
ATOM     19  CG  LYS A   6      30.866  30.132  23.291  0.00  0.00    -0.000 C 
BRANCH  19  20
ATOM     20  CD  LYS A   6      30.003  29.888  24.533  0.00  0.00    -0.024 C 
BRANCH  20  21
ATOM     21  CE  LYS A   6      30.610  28.869  25.488  0.00  0.00    -0.086 C 
BRANCH  21  22
ATOM     22  NZ  LYS A   6      30.408  27.450  25.053  0.00  0.00    +0.380 N 
ATOM     23  HZ1 LYS A   6      30.845  26.810  25.747  0.00  0.00    -0.089 HD
ATOM     24  HZ2 LYS A   6      29.389  27.250  24.989  0.00  0.00    -0.089 HD
ATOM     25  HZ3 LYS A   6      30.850  27.308  24.122  0.00  0.00    -0.089 HD
ENDBRANCH  21  22
ENDBRANCH  20  21
ENDBRANCH  19  20
ENDBRANCH  18  19
ENDBRANCH  15  18
ENDBRANCH  12  15
ENDBRANCH  10  11
BRANCH  10  26
ATOM     26  CB  TYR A   5      35.801  31.596  21.822  0.00  0.00    +0.055 C 
BRANCH  26  27
ATOM     27  CG  TYR A   5      35.199  30.467  22.628  0.00  0.00    -0.020 A 
ATOM     28  CD2 TYR A   5      35.193  30.506  24.022  0.00  0.00    -0.001 A 
ATOM     29  CE2 TYR A   5      34.672  29.453  24.769  0.00  0.00    +0.036 A 
ATOM     30  CZ  TYR A   5      34.165  28.339  24.122  0.00  0.00    +0.134 A 
ATOM     31  CE1 TYR A   5      34.172  28.268  22.736  0.00  0.00    +0.036 A 
ATOM     32  CD1 TYR A   5      34.696  29.324  21.997  0.00  0.00    -0.001 A 
BRANCH  30  33
ATOM     33  OH  TYR A   5      33.646  27.292  24.864  0.00  0.00    -0.506 OA
ATOM     34  HH  TYR A   5      33.329  26.581  24.252  0.00  0.00    +0.292 HD
ENDBRANCH  30  33
ENDBRANCH  26  27
ENDBRANCH  10  26
ENDBRANCH   7  10
ENDBRANCH   5   6
BRANCH   5  35
ATOM     35  CB  GLU A   4      35.464  36.810  22.918  0.00  0.00    +0.041 C 
BRANCH  35  36
ATOM     36  CG  GLU A   4      35.349  38.213  23.486  0.00  0.00    +0.116 C 
BRANCH  36  37
ATOM     37  CD  GLU A   4      36.691  38.779  23.919  0.00  0.00    +0.365 C 
ATOM     38  OE2 GLU A   4      37.159  38.433  25.023  0.00  0.00    -0.246 OA
ATOM     39  OE1 GLU A   4      37.272  39.565  23.147  0.00  0.00    -0.246 OA
ENDBRANCH  36  37
ENDBRANCH  35  36
ENDBRANCH   5  35
ENDBRANCH   2   5
BRANCH   1  40
ATOM     40  CA  HIS A   3      32.114  34.409  25.525  0.00  0.00    +0.155 C 
BRANCH  40  43
ATOM     41  C   ILE A   2      30.253  34.603  27.116  0.00  0.00    +0.241 C 
ATOM     42  O   ILE A   2      30.995  34.606  28.099  0.00  0.00    -0.273 OA
ATOM     43  N   HIS A   3      30.694  34.539  25.862  0.00  0.00    -0.297 N 
ATOM     44  H   HIS A   3      30.001  34.583  25.088  0.00  0.00    +0.150 HD
BRANCH  41  45
ATOM     45  CA  ILE A   2      28.733  34.641  27.283  0.00  0.00    +0.148 C 
BRANCH  45  47
ATOM     46  C   ARG A   1      28.319  32.273  27.647  0.00  0.00    +0.238 C 
ATOM     47  N   ILE A   2      28.322  33.515  28.123  0.00  0.00    -0.297 N 
ATOM     48  H   ILE A   2      28.028  33.688  29.105  0.00  0.00    +0.150 HD
ATOM     49  O   ARG A   1      28.635  32.003  26.485  0.00  0.00    -0.274 OA
BRANCH  46  50
ATOM     50  CA  ARG A   1      27.869  31.169  28.609  0.00  0.00    +0.145 C 
BRANCH  50  51
ATOM     51  N   ARG A   1      27.105  30.136  27.905  0.00  0.00    -0.238 NA
ATOM     52  H   ARG A   1      27.432  29.149  27.925  0.00  0.00    +0.142 HD
ENDBRANCH  50  51
BRANCH  50  53
ATOM     53  CB  ARG A   1      29.059  30.552  29.349  0.00  0.00    +0.030 C 
BRANCH  53  54
ATOM     54  CG  ARG A   1      28.661  29.730  30.576  0.00  0.00    +0.045 C 
BRANCH  54  55
ATOM     55  CD  ARG A   1      28.084  30.597  31.696  0.00  0.00    +0.174 C 
BRANCH  55  56
ATOM     56  NE  ARG A   1      29.070  31.535  32.241  0.00  0.00    -0.265 N 
ATOM     57  CZ  ARG A   1      29.751  31.350  33.372  0.00  0.00    +0.342 C 
ATOM     58  NH2 ARG A   1      29.569  30.259  34.111  0.00  0.00    -0.292 N 
ATOM     59 HH21 ARG A   1      30.109  30.131  34.991  0.00  0.00    +0.255 HD
ATOM     60 HH22 ARG A   1      28.887  29.534  33.809  0.00  0.00    +0.255 HD
ATOM     61  NH1 ARG A   1      30.621  32.268  33.768  0.00  0.00    -0.292 N 
ATOM     62 HH11 ARG A   1      31.156  32.131  34.649  0.00  0.00    +0.255 HD
ATOM     63 HH12 ARG A   1      30.768  33.125  33.198  0.00  0.00    +0.255 HD
ATOM     64  HE  ARG A   1      29.251  32.408  31.706  0.00  0.00    +0.259 HD
ENDBRANCH  55  56
ENDBRANCH  54  55
ENDBRANCH  53  54
ENDBRANCH  50  53
ENDBRANCH  46  50
ENDBRANCH  45  47
BRANCH  45  65
ATOM     65  CB  ILE A   2      28.270  36.023  27.839  0.00  0.00    +0.027 C 
ATOM     66  CG2 ILE A   2      28.602  37.150  26.846  0.00  0.00    +0.002 C 
BRANCH  65  67
ATOM     67  CG1 ILE A   2      26.768  36.022  28.185  0.00  0.00    +0.002 C 
ATOM     68  CD1 ILE A   2      25.810  35.622  27.021  0.00  0.00    +0.000 C 
ENDBRANCH  65  67
ENDBRANCH  45  65
ENDBRANCH  41  45
ENDBRANCH  40  43
BRANCH  40  69
ATOM     69  CB  HIS A   3      32.480  32.937  25.313  0.00  0.00    +0.076 C 
BRANCH  69  70
ATOM     70  CG  HIS A   3      32.972  32.240  26.541  0.00  0.00    +0.082 A 
ATOM     71  CD2 HIS A   3      32.369  31.343  27.358  0.00  0.00    +0.115 A 
ATOM     72  NE2 HIS A   3      33.283  30.999  28.325  0.00  0.00    -0.221 NA
ATOM     73  CE1 HIS A   3      34.411  31.651  28.100  0.00  0.00    +0.199 A 
ATOM     74  ND1 HIS A   3      34.253  32.401  27.023  0.00  0.00    -0.227 NA
ENDBRANCH  69  70
ENDBRANCH  40  69
ENDBRANCH   1  40
TORSDOF 31
REMARK  Name = ../refined-set-2016/3ebo/3ebo_pocket.pdb
REMARK  121 active torsions:
REMARK  status: ('A' for Active; 'I' for Inactive)
REMARK    1  A    between atoms: _2  and  _3
REMARK    2  A    between atoms: _8  and  _10
REMARK    3  A    between atoms: _10  and  _11
REMARK    4  A    between atoms: _10  and  _13
REMARK    5  A    between atoms: _13  and  _14
REMARK    6  A    between atoms: _19  and  _21
REMARK    7  A    between atoms: _21  and  _22
REMARK    8  A    between atoms: _21  and  _24
REMARK    9  A    between atoms: _24  and  _25
REMARK   10  A    between atoms: _28  and  _30
REMARK   11  A    between atoms: _30  and  _31
REMARK   12  A    between atoms: _30  and  _33
REMARK   13  A    between atoms: _33  and  _34
REMARK   14  A    between atoms: _39  and  _41
REMARK   15  A    between atoms: _41  and  _42
REMARK   16  A    between atoms: _41  and  _44
REMARK   17  A    between atoms: _44  and  _45
REMARK   18  A    between atoms: _51  and  _53
REMARK   19  A    between atoms: _53  and  _54
REMARK   20  A    between atoms: _53  and  _56
REMARK   21  A    between atoms: _56  and  _57
REMARK   22  A    between atoms: _63  and  _65
REMARK   23  A    between atoms: _65  and  _66
REMARK   24  A    between atoms: _65  and  _68
REMARK   25  A    between atoms: _68  and  _69
REMARK   26  A    between atoms: _69  and  _70
REMARK   27  A    between atoms: _73  and  _75
REMARK   28  A    between atoms: _75  and  _76
REMARK   29  A    between atoms: _75  and  _78
REMARK   30  A    between atoms: _78  and  _79
REMARK   31  A    between atoms: _82  and  _84
REMARK   32  A    between atoms: _84  and  _85
REMARK   33  A    between atoms: _84  and  _87
REMARK   34  A    between atoms: _87  and  _88
REMARK   35  A    between atoms: _92  and  _93
REMARK   36  A    between atoms: _98  and  _100
REMARK   37  A    between atoms: _100  and  _101
REMARK   38  A    between atoms: _100  and  _103
REMARK   39  A    between atoms: _103  and  _104
REMARK   40  A    between atoms: _104  and  _105
REMARK   41  A    between atoms: _108  and  _110
REMARK   42  A    between atoms: _110  and  _111
REMARK   43  A    between atoms: _114  and  _116
REMARK   44  A    between atoms: _116  and  _117
REMARK   45  A    between atoms: _116  and  _119
REMARK   46  A    between atoms: _119  and  _120
REMARK   47  A    between atoms: _123  and  _125
REMARK   48  A    between atoms: _125  and  _126
REMARK   49  A    between atoms: _125  and  _128
REMARK   50  A    between atoms: _128  and  _129
REMARK   51  A    between atoms: _129  and  _130
REMARK   52  A    between atoms: _130  and  _131
REMARK   53  A    between atoms: _140  and  _142
REMARK   54  A    between atoms: _142  and  _143
REMARK   55  A    between atoms: _142  and  _145
REMARK   56  A    between atoms: _145  and  _146
REMARK   57  A    between atoms: _149  and  _151
REMARK   58  A    between atoms: _151  and  _152
REMARK   59  A    between atoms: _151  and  _154
REMARK   60  A    between atoms: _154  and  _155
REMARK   61  A    between atoms: _160  and  _162
REMARK   62  A    between atoms: _162  and  _163
REMARK   63  A    between atoms: _162  and  _165
REMARK   64  A    between atoms: _165  and  _166
REMARK   65  A    between atoms: _166  and  _167
REMARK   66  A    between atoms: _170  and  _172
REMARK   67  A    between atoms: _172  and  _173
REMARK   68  A    between atoms: _172  and  _175
REMARK   69  A    between atoms: _175  and  _176
REMARK   70  A    between atoms: _181  and  _182
REMARK   71  A    between atoms: _184  and  _186
REMARK   72  A    between atoms: _186  and  _187
REMARK   73  A    between atoms: _186  and  _189
REMARK   74  A    between atoms: _189  and  _190
REMARK   75  A    between atoms: _190  and  _191
REMARK   76  A    between atoms: _191  and  _192
REMARK   77  A    between atoms: _192  and  _193
REMARK   78  A    between atoms: _197  and  _199
REMARK   79  A    between atoms: _199  and  _200
REMARK   80  A    between atoms: _203  and  _205
REMARK   81  A    between atoms: _205  and  _206
REMARK   82  A    between atoms: _210  and  _211
REMARK   83  A    between atoms: _216  and  _218
REMARK   84  A    between atoms: _218  and  _219
REMARK   85  A    between atoms: _221  and  _223
REMARK   86  A    between atoms: _223  and  _224
REMARK   87  A    between atoms: _223  and  _226
REMARK   88  A    between atoms: _226  and  _227
REMARK   89  A    between atoms: _232  and  _233
REMARK   90  A    between atoms: _235  and  _237
REMARK   91  A    between atoms: _237  and  _238
REMARK   92  A    between atoms: _237  and  _240
REMARK   93  A    between atoms: _240  and  _241
REMARK   94  A    between atoms: _246  and  _248
REMARK   95  A    between atoms: _248  and  _249
REMARK   96  A    between atoms: _248  and  _251
REMARK   97  A    between atoms: _251  and  _252
REMARK   98  A    between atoms: _252  and  _253
REMARK   99  A    between atoms: _255  and  _257
REMARK  100  A    between atoms: _257  and  _258
REMARK  101  A    between atoms: _261  and  _263
REMARK  102  A    between atoms: _263  and  _264
REMARK  103  A    between atoms: _263  and  _266
REMARK  104  A    between atoms: _266  and  _267
REMARK  105  A    between atoms: _267  and  _268
REMARK  106  A    between atoms: _268  and  _269
REMARK  107  A    between atoms: _269  and  _270
REMARK  108  A    between atoms: _274  and  _276
REMARK  109  A    between atoms: _276  and  _277
REMARK  110  A    between atoms: _276  and  _279
REMARK  111  A    between atoms: _279  and  _280
REMARK  112  A    between atoms: _283  and  _285
REMARK  113  A    between atoms: _285  and  _286
REMARK  114  A    between atoms: _285  and  _288
REMARK  115  A    between atoms: _288  and  _289
REMARK  116  A    between atoms: _289  and  _290
REMARK  117  A    between atoms: _290  and  _291
REMARK  118  A    between atoms: _300  and  _302
REMARK  119  A    between atoms: _302  and  _303
REMARK  120  A    between atoms: _302  and  _305
REMARK  121  A    between atoms: _305  and  _306
REMARK                            x       y       z     vdW  Elec       q    Type
REMARK                         _______ _______ _______ _____ _____    ______ ____
ROOT
ATOM      1  C   TYR A   5      34.306  40.561  31.694  0.00  0.00    +0.241 C 
ATOM      2  N   HIS A   6      35.093  41.627  31.559  0.00  0.00    -0.297 N 
ATOM      3  H   HIS A   6      36.104  41.541  31.788  0.00  0.00    +0.150 HD
ATOM      4  O   TYR A   5      33.118  40.539  31.329  0.00  0.00    -0.273 OA
ENDROOT
BRANCH   2   5
ATOM      5  CA  HIS A   6      34.576  42.917  31.097  0.00  0.00    +0.155 C 
BRANCH   5   6
ATOM      6  C   HIS A   6      33.888  42.867  29.731  0.00  0.00    +0.241 C 
ATOM      7  O   HIS A   6      32.769  43.364  29.582  0.00  0.00    -0.273 OA
ATOM      8  N   MET A   7      34.552  42.268  28.744  0.00  0.00    -0.297 N 
ATOM      9  H   MET A   7      35.479  41.839  28.942  0.00  0.00    +0.150 HD
BRANCH   8  10
ATOM     10  CA  MET A   7      34.007  42.199  27.385  0.00  0.00    +0.149 C 
BRANCH  10  11
ATOM     11  C   MET A   7      32.662  41.462  27.339  0.00  0.00    +0.241 C 
ATOM     12  N   ALA A   8      32.563  40.342  28.055  0.00  0.00    -0.297 N 
ATOM     13  H   ALA A   8      33.396  39.998  28.574  0.00  0.00    +0.150 HD
ATOM     14  O   MET A   7      31.730  41.917  26.680  0.00  0.00    -0.273 OA
BRANCH  12  15
ATOM     15  CA  ALA A   8      31.309  39.582  28.130  0.00  0.00    +0.149 C 
ATOM     16  CB  ALA A   8      31.511  38.294  28.895  0.00  0.00    +0.031 C 
BRANCH  15  17
ATOM     17  C   ALA A   8      30.186  40.403  28.762  0.00  0.00    +0.241 C 
ATOM     18  N   LYS A   9      30.523  41.192  29.780  0.00  0.00    -0.298 N 
ATOM     19  H   LYS A   9      31.497  41.172  30.143  0.00  0.00    +0.150 HD
ATOM     20  O   ALA A   8      29.035  40.325  28.334  0.00  0.00    -0.273 OA
BRANCH  18  21
ATOM     21  CA  LYS A   9      29.545  42.084  30.393  0.00  0.00    +0.137 C 
BRANCH  21  22
ATOM     22  C   LYS A   9      29.096  43.183  29.429  0.00  0.00    +0.227 C 
ATOM     23  O   LYS A   9      27.916  43.555  29.410  0.00  0.00    -0.286 OA
ENDBRANCH  21  22
BRANCH  21  24
ATOM     24  CB  LYS A   9      30.071  42.654  31.710  0.00  0.00    +0.028 C 
BRANCH  24  25
ATOM     25  CG  LYS A   9      30.036  41.628  32.831  0.00  0.00    -0.000 C 
BRANCH  25  26
ATOM     26  CD  LYS A   9      30.258  42.253  34.187  0.00  0.00    -0.024 C 
BRANCH  26  27
ATOM     27  CE  LYS A   9      29.718  41.343  35.265  0.00  0.00    -0.086 C 
BRANCH  27  28
ATOM     28  NZ  LYS A   9      30.058  41.826  36.626  0.00  0.00    +0.380 N 
ATOM     29  HZ1 LYS A   9      29.667  41.171  37.333  0.00  0.00    -0.089 HD
ATOM     30  HZ2 LYS A   9      29.652  42.773  36.768  0.00  0.00    -0.089 HD
ATOM     31  HZ3 LYS A   9      31.092  41.872  36.728  0.00  0.00    -0.089 HD
ENDBRANCH  27  28
ENDBRANCH  26  27
ENDBRANCH  25  26
ENDBRANCH  24  25
ENDBRANCH  21  24
ENDBRANCH  18  21
ENDBRANCH  15  17
ENDBRANCH  12  15
ENDBRANCH  10  11
BRANCH  10  32
ATOM     32  CB  MET A   7      35.019  41.571  26.414  0.00  0.00    +0.041 C 
BRANCH  32  33
ATOM     33  CG  MET A   7      34.670  41.746  24.934  0.00  0.00    +0.060 C 
BRANCH  33  34
ATOM     34  SD  MET A   7      34.451  43.465  24.394  0.00  0.00    -0.139 S 
ATOM     35  CE  MET A   7      36.121  44.099  24.571  0.00  0.00    +0.069 C 
ENDBRANCH  33  34
ENDBRANCH  32  33
ENDBRANCH  10  32
ENDBRANCH   8  10
ENDBRANCH   5   6
BRANCH   5  36
ATOM     36  CB  HIS A   6      35.676  43.988  31.092  0.00  0.00    +0.076 C 
BRANCH  36  37
ATOM     37  CG  HIS A   6      35.192  45.332  30.644  0.00  0.00    +0.082 A 
ATOM     38  CD2 HIS A   6      34.378  46.232  31.245  0.00  0.00    +0.115 A 
ATOM     39  NE2 HIS A   6      34.243  47.295  30.385  0.00  0.00    -0.221 NA
ATOM     40  CE1 HIS A   6      34.940  47.051  29.289  0.00  0.00    +0.199 A 
ATOM     41  ND1 HIS A   6      35.521  45.871  29.419  0.00  0.00    -0.227 NA
ENDBRANCH  36  37
ENDBRANCH   5  36
ENDBRANCH   2   5
BRANCH   1  42
ATOM     42  CA  TYR A   5      34.950  39.335  32.330  0.00  0.00    +0.153 C 
BRANCH  42  45
ATOM     43  C   GLY A   4      35.594  39.949  34.613  0.00  0.00    +0.243 C 
ATOM     44  O   GLY A   4      36.576  40.587  34.232  0.00  0.00    -0.273 OA
ATOM     45  N   TYR A   5      34.734  39.373  33.774  0.00  0.00    -0.297 N 
ATOM     46  H   TYR A   5      33.875  38.933  34.163  0.00  0.00    +0.150 HD
BRANCH  43  47
ATOM     47  CA  GLY A   4      35.310  39.798  36.097  0.00  0.00    +0.176 C 
BRANCH  47  50
ATOM     48  C   PRO A   3      32.952  39.523  36.657  0.00  0.00    +0.241 C 
ATOM     49  O   PRO A   3      32.739  40.730  36.573  0.00  0.00    -0.273 OA
ATOM     50  N   GLY A   4      34.147  38.979  36.444  0.00  0.00    -0.295 N 
ATOM     51  H   GLY A   4      34.258  37.948  36.526  0.00  0.00    +0.150 HD
BRANCH  48  57
ATOM     52  C   ALA A   2      32.034  37.053  35.083  0.00  0.00    +0.244 C 
ATOM     53  N   PRO A   3      31.889  37.241  36.413  0.00  0.00    -0.272 N 
ATOM     54  CD  PRO A   3      31.778  36.181  37.430  0.00  0.00    +0.094 C 
ATOM     55  CG  PRO A   3      31.277  36.917  38.642  0.00  0.00    +0.024 C 
ATOM     56  CB  PRO A   3      31.816  38.284  38.526  0.00  0.00    +0.031 C 
ATOM     57  CA  PRO A   3      31.802  38.578  37.020  0.00  0.00    +0.152 C 
ATOM     58  O   ALA A   2      32.172  37.987  34.290  0.00  0.00    -0.273 OA
BRANCH  52  59
ATOM     59  CA  ALA A   2      31.974  35.616  34.556  0.00  0.00    +0.149 C 
ATOM     60  CB  ALA A   2      33.364  35.087  34.234  0.00  0.00    +0.031 C 
BRANCH  59  63
ATOM     61  C   ALA A   1      29.881  36.064  33.415  0.00  0.00    +0.238 C 
ATOM     62  O   ALA A   1      29.309  36.303  34.479  0.00  0.00    -0.274 OA
ATOM     63  N   ALA A   2      31.136  35.627  33.362  0.00  0.00    -0.297 N 
ATOM     64  H   ALA A   2      31.525  35.289  32.458  0.00  0.00    +0.150 HD
BRANCH  61  65
ATOM     65  CA  ALA A   1      29.156  36.262  32.091  0.00  0.00    +0.145 C 
ATOM     66  CB  ALA A   1      29.217  37.725  31.683  0.00  0.00    +0.028 C 
BRANCH  65  67
ATOM     67  N   ALA A   1      27.763  35.852  32.257  0.00  0.00    -0.238 NA
ATOM     68  H   ALA A   1      27.114  36.497  32.751  0.00  0.00    +0.142 HD
ENDBRANCH  65  67
ENDBRANCH  61  65
ENDBRANCH  59  63
ENDBRANCH  52  59
ENDBRANCH  48  57
ENDBRANCH  47  50
ENDBRANCH  43  47
ENDBRANCH  42  45
BRANCH  42  69
ATOM     69  CB  TYR A   5      34.349  38.046  31.751  0.00  0.00    +0.055 C 
BRANCH  69  70
ATOM     70  CG  TYR A   5      34.743  37.694  30.326  0.00  0.00    -0.020 A 
ATOM     71  CD2 TYR A   5      34.359  36.468  29.776  0.00  0.00    -0.001 A 
ATOM     72  CE2 TYR A   5      34.695  36.124  28.476  0.00  0.00    +0.036 A 
ATOM     73  CZ  TYR A   5      35.445  37.001  27.706  0.00  0.00    +0.134 A 
ATOM     74  CE1 TYR A   5      35.852  38.225  28.225  0.00  0.00    +0.036 A 
ATOM     75  CD1 TYR A   5      35.499  38.564  29.532  0.00  0.00    -0.001 A 
BRANCH  73  76
ATOM     76  OH  TYR A   5      35.780  36.648  26.423  0.00  0.00    -0.506 OA
ATOM     77  HH  TYR A   5      35.404  37.311  25.791  0.00  0.00    +0.292 HD
ENDBRANCH  73  76
ENDBRANCH  69  70
ENDBRANCH  42  69
ENDBRANCH   1  42
TORSDOF 30
REMARK  Name = ../refined-set-2016/3ebo/3ebo_pocket.pdb
REMARK  121 active torsions:
REMARK  status: ('A' for Active; 'I' for Inactive)
REMARK    1  A    between atoms: _2  and  _3
REMARK    2  A    between atoms: _8  and  _10
REMARK    3  A    between atoms: _10  and  _11
REMARK    4  A    between atoms: _10  and  _13
REMARK    5  A    between atoms: _13  and  _14
REMARK    6  A    between atoms: _19  and  _21
REMARK    7  A    between atoms: _21  and  _22
REMARK    8  A    between atoms: _21  and  _24
REMARK    9  A    between atoms: _24  and  _25
REMARK   10  A    between atoms: _28  and  _30
REMARK   11  A    between atoms: _30  and  _31
REMARK   12  A    between atoms: _30  and  _33
REMARK   13  A    between atoms: _33  and  _34
REMARK   14  A    between atoms: _39  and  _41
REMARK   15  A    between atoms: _41  and  _42
REMARK   16  A    between atoms: _41  and  _44
REMARK   17  A    between atoms: _44  and  _45
REMARK   18  A    between atoms: _51  and  _53
REMARK   19  A    between atoms: _53  and  _54
REMARK   20  A    between atoms: _53  and  _56
REMARK   21  A    between atoms: _56  and  _57
REMARK   22  A    between atoms: _63  and  _65
REMARK   23  A    between atoms: _65  and  _66
REMARK   24  A    between atoms: _65  and  _68
REMARK   25  A    between atoms: _68  and  _69
REMARK   26  A    between atoms: _69  and  _70
REMARK   27  A    between atoms: _73  and  _75
REMARK   28  A    between atoms: _75  and  _76
REMARK   29  A    between atoms: _75  and  _78
REMARK   30  A    between atoms: _78  and  _79
REMARK   31  A    between atoms: _82  and  _84
REMARK   32  A    between atoms: _84  and  _85
REMARK   33  A    between atoms: _84  and  _87
REMARK   34  A    between atoms: _87  and  _88
REMARK   35  A    between atoms: _92  and  _93
REMARK   36  A    between atoms: _98  and  _100
REMARK   37  A    between atoms: _100  and  _101
REMARK   38  A    between atoms: _100  and  _103
REMARK   39  A    between atoms: _103  and  _104
REMARK   40  A    between atoms: _104  and  _105
REMARK   41  A    between atoms: _108  and  _110
REMARK   42  A    between atoms: _110  and  _111
REMARK   43  A    between atoms: _114  and  _116
REMARK   44  A    between atoms: _116  and  _117
REMARK   45  A    between atoms: _116  and  _119
REMARK   46  A    between atoms: _119  and  _120
REMARK   47  A    between atoms: _123  and  _125
REMARK   48  A    between atoms: _125  and  _126
REMARK   49  A    between atoms: _125  and  _128
REMARK   50  A    between atoms: _128  and  _129
REMARK   51  A    between atoms: _129  and  _130
REMARK   52  A    between atoms: _130  and  _131
REMARK   53  A    between atoms: _140  and  _142
REMARK   54  A    between atoms: _142  and  _143
REMARK   55  A    between atoms: _142  and  _145
REMARK   56  A    between atoms: _145  and  _146
REMARK   57  A    between atoms: _149  and  _151
REMARK   58  A    between atoms: _151  and  _152
REMARK   59  A    between atoms: _151  and  _154
REMARK   60  A    between atoms: _154  and  _155
REMARK   61  A    between atoms: _160  and  _162
REMARK   62  A    between atoms: _162  and  _163
REMARK   63  A    between atoms: _162  and  _165
REMARK   64  A    between atoms: _165  and  _166
REMARK   65  A    between atoms: _166  and  _167
REMARK   66  A    between atoms: _170  and  _172
REMARK   67  A    between atoms: _172  and  _173
REMARK   68  A    between atoms: _172  and  _175
REMARK   69  A    between atoms: _175  and  _176
REMARK   70  A    between atoms: _181  and  _182
REMARK   71  A    between atoms: _184  and  _186
REMARK   72  A    between atoms: _186  and  _187
REMARK   73  A    between atoms: _186  and  _189
REMARK   74  A    between atoms: _189  and  _190
REMARK   75  A    between atoms: _190  and  _191
REMARK   76  A    between atoms: _191  and  _192
REMARK   77  A    between atoms: _192  and  _193
REMARK   78  A    between atoms: _197  and  _199
REMARK   79  A    between atoms: _199  and  _200
REMARK   80  A    between atoms: _203  and  _205
REMARK   81  A    between atoms: _205  and  _206
REMARK   82  A    between atoms: _210  and  _211
REMARK   83  A    between atoms: _216  and  _218
REMARK   84  A    between atoms: _218  and  _219
REMARK   85  A    between atoms: _221  and  _223
REMARK   86  A    between atoms: _223  and  _224
REMARK   87  A    between atoms: _223  and  _226
REMARK   88  A    between atoms: _226  and  _227
REMARK   89  A    between atoms: _232  and  _233
REMARK   90  A    between atoms: _235  and  _237
REMARK   91  A    between atoms: _237  and  _238
REMARK   92  A    between atoms: _237  and  _240
REMARK   93  A    between atoms: _240  and  _241
REMARK   94  A    between atoms: _246  and  _248
REMARK   95  A    between atoms: _248  and  _249
REMARK   96  A    between atoms: _248  and  _251
REMARK   97  A    between atoms: _251  and  _252
REMARK   98  A    between atoms: _252  and  _253
REMARK   99  A    between atoms: _255  and  _257
REMARK  100  A    between atoms: _257  and  _258
REMARK  101  A    between atoms: _261  and  _263
REMARK  102  A    between atoms: _263  and  _264
REMARK  103  A    between atoms: _263  and  _266
REMARK  104  A    between atoms: _266  and  _267
REMARK  105  A    between atoms: _267  and  _268
REMARK  106  A    between atoms: _268  and  _269
REMARK  107  A    between atoms: _269  and  _270
REMARK  108  A    between atoms: _274  and  _276
REMARK  109  A    between atoms: _276  and  _277
REMARK  110  A    between atoms: _276  and  _279
REMARK  111  A    between atoms: _279  and  _280
REMARK  112  A    between atoms: _283  and  _285
REMARK  113  A    between atoms: _285  and  _286
REMARK  114  A    between atoms: _285  and  _288
REMARK  115  A    between atoms: _288  and  _289
REMARK  116  A    between atoms: _289  and  _290
REMARK  117  A    between atoms: _290  and  _291
REMARK  118  A    between atoms: _300  and  _302
REMARK  119  A    between atoms: _302  and  _303
REMARK  120  A    between atoms: _302  and  _305
REMARK  121  A    between atoms: _305  and  _306
REMARK                            x       y       z     vdW  Elec       q    Type
REMARK                         _______ _______ _______ _____ _____    ______ ____
ROOT
ATOM      1  CA  THR A   1      37.530  26.949  19.445  0.00  0.00    +0.160 C 
ENDROOT
BRANCH   1   2
ATOM      2  N   THR A   1      37.558  26.391  18.084  0.00  0.00    -0.237 NA
ATOM      3  H   THR A   1      36.730  26.503  17.465  0.00  0.00    +0.142 HD
ENDBRANCH   1   2
BRANCH   1   4
ATOM      4  C   THR A   1      36.610  26.219  20.424  0.00  0.00    +0.227 C 
ATOM      5  O   THR A   1      36.958  26.063  21.593  0.00  0.00    -0.287 OA
ENDBRANCH   1   4
BRANCH   1   6
ATOM      6  CB  THR A   1      37.189  28.455  19.445  0.00  0.00    +0.134 C 
ATOM      7  CG2 THR A   1      38.170  29.241  18.568  0.00  0.00    +0.034 C 
BRANCH   6   8
ATOM      8  OG1 THR A   1      35.853  28.654  18.964  0.00  0.00    -0.383 OA
ATOM      9  HG1 THR A   1      35.780  28.302  18.041  0.00  0.00    +0.210 HD
ENDBRANCH   6   8
ENDBRANCH   1   6
TORSDOF 4
REMARK  Name = ../refined-set-2016/3ebo/3ebo_pocket.pdb
REMARK  121 active torsions:
REMARK  status: ('A' for Active; 'I' for Inactive)
REMARK    1  A    between atoms: _2  and  _3
REMARK    2  A    between atoms: _8  and  _10
REMARK    3  A    between atoms: _10  and  _11
REMARK    4  A    between atoms: _10  and  _13
REMARK    5  A    between atoms: _13  and  _14
REMARK    6  A    between atoms: _19  and  _21
REMARK    7  A    between atoms: _21  and  _22
REMARK    8  A    between atoms: _21  and  _24
REMARK    9  A    between atoms: _24  and  _25
REMARK   10  A    between atoms: _28  and  _30
REMARK   11  A    between atoms: _30  and  _31
REMARK   12  A    between atoms: _30  and  _33
REMARK   13  A    between atoms: _33  and  _34
REMARK   14  A    between atoms: _39  and  _41
REMARK   15  A    between atoms: _41  and  _42
REMARK   16  A    between atoms: _41  and  _44
REMARK   17  A    between atoms: _44  and  _45
REMARK   18  A    between atoms: _51  and  _53
REMARK   19  A    between atoms: _53  and  _54
REMARK   20  A    between atoms: _53  and  _56
REMARK   21  A    between atoms: _56  and  _57
REMARK   22  A    between atoms: _63  and  _65
REMARK   23  A    between atoms: _65  and  _66
REMARK   24  A    between atoms: _65  and  _68
REMARK   25  A    between atoms: _68  and  _69
REMARK   26  A    between atoms: _69  and  _70
REMARK   27  A    between atoms: _73  and  _75
REMARK   28  A    between atoms: _75  and  _76
REMARK   29  A    between atoms: _75  and  _78
REMARK   30  A    between atoms: _78  and  _79
REMARK   31  A    between atoms: _82  and  _84
REMARK   32  A    between atoms: _84  and  _85
REMARK   33  A    between atoms: _84  and  _87
REMARK   34  A    between atoms: _87  and  _88
REMARK   35  A    between atoms: _92  and  _93
REMARK   36  A    between atoms: _98  and  _100
REMARK   37  A    between atoms: _100  and  _101
REMARK   38  A    between atoms: _100  and  _103
REMARK   39  A    between atoms: _103  and  _104
REMARK   40  A    between atoms: _104  and  _105
REMARK   41  A    between atoms: _108  and  _110
REMARK   42  A    between atoms: _110  and  _111
REMARK   43  A    between atoms: _114  and  _116
REMARK   44  A    between atoms: _116  and  _117
REMARK   45  A    between atoms: _116  and  _119
REMARK   46  A    between atoms: _119  and  _120
REMARK   47  A    between atoms: _123  and  _125
REMARK   48  A    between atoms: _125  and  _126
REMARK   49  A    between atoms: _125  and  _128
REMARK   50  A    between atoms: _128  and  _129
REMARK   51  A    between atoms: _129  and  _130
REMARK   52  A    between atoms: _130  and  _131
REMARK   53  A    between atoms: _140  and  _142
REMARK   54  A    between atoms: _142  and  _143
REMARK   55  A    between atoms: _142  and  _145
REMARK   56  A    between atoms: _145  and  _146
REMARK   57  A    between atoms: _149  and  _151
REMARK   58  A    between atoms: _151  and  _152
REMARK   59  A    between atoms: _151  and  _154
REMARK   60  A    between atoms: _154  and  _155
REMARK   61  A    between atoms: _160  and  _162
REMARK   62  A    between atoms: _162  and  _163
REMARK   63  A    between atoms: _162  and  _165
REMARK   64  A    between atoms: _165  and  _166
REMARK   65  A    between atoms: _166  and  _167
REMARK   66  A    between atoms: _170  and  _172
REMARK   67  A    between atoms: _172  and  _173
REMARK   68  A    between atoms: _172  and  _175
REMARK   69  A    between atoms: _175  and  _176
REMARK   70  A    between atoms: _181  and  _182
REMARK   71  A    between atoms: _184  and  _186
REMARK   72  A    between atoms: _186  and  _187
REMARK   73  A    between atoms: _186  and  _189
REMARK   74  A    between atoms: _189  and  _190
REMARK   75  A    between atoms: _190  and  _191
REMARK   76  A    between atoms: _191  and  _192
REMARK   77  A    between atoms: _192  and  _193
REMARK   78  A    between atoms: _197  and  _199
REMARK   79  A    between atoms: _199  and  _200
REMARK   80  A    between atoms: _203  and  _205
REMARK   81  A    between atoms: _205  and  _206
REMARK   82  A    between atoms: _210  and  _211
REMARK   83  A    between atoms: _216  and  _218
REMARK   84  A    between atoms: _218  and  _219
REMARK   85  A    between atoms: _221  and  _223
REMARK   86  A    between atoms: _223  and  _224
REMARK   87  A    between atoms: _223  and  _226
REMARK   88  A    between atoms: _226  and  _227
REMARK   89  A    between atoms: _232  and  _233
REMARK   90  A    between atoms: _235  and  _237
REMARK   91  A    between atoms: _237  and  _238
REMARK   92  A    between atoms: _237  and  _240
REMARK   93  A    between atoms: _240  and  _241
REMARK   94  A    between atoms: _246  and  _248
REMARK   95  A    between atoms: _248  and  _249
REMARK   96  A    between atoms: _248  and  _251
REMARK   97  A    between atoms: _251  and  _252
REMARK   98  A    between atoms: _252  and  _253
REMARK   99  A    between atoms: _255  and  _257
REMARK  100  A    between atoms: _257  and  _258
REMARK  101  A    between atoms: _261  and  _263
REMARK  102  A    between atoms: _263  and  _264
REMARK  103  A    between atoms: _263  and  _266
REMARK  104  A    between atoms: _266  and  _267
REMARK  105  A    between atoms: _267  and  _268
REMARK  106  A    between atoms: _268  and  _269
REMARK  107  A    between atoms: _269  and  _270
REMARK  108  A    between atoms: _274  and  _276
REMARK  109  A    between atoms: _276  and  _277
REMARK  110  A    between atoms: _276  and  _279
REMARK  111  A    between atoms: _279  and  _280
REMARK  112  A    between atoms: _283  and  _285
REMARK  113  A    between atoms: _285  and  _286
REMARK  114  A    between atoms: _285  and  _288
REMARK  115  A    between atoms: _288  and  _289
REMARK  116  A    between atoms: _289  and  _290
REMARK  117  A    between atoms: _290  and  _291
REMARK  118  A    between atoms: _300  and  _302
REMARK  119  A    between atoms: _302  and  _303
REMARK  120  A    between atoms: _302  and  _305
REMARK  121  A    between atoms: _305  and  _306
REMARK                            x       y       z     vdW  Elec       q    Type
REMARK                         _______ _______ _______ _____ _____    ______ ____
ROOT
ATOM      1  CA  ARG A   1      41.054  36.926  17.979  0.00  0.00    +0.145 C 
ENDROOT
BRANCH   1   2
ATOM      2  C   ARG A   1      40.117  35.900  17.341  0.00  0.00    +0.238 C 
ATOM      3  N   PHE A   2      38.831  36.229  17.262  0.00  0.00    -0.298 N 
ATOM      4  H   PHE A   2      38.530  37.193  17.512  0.00  0.00    +0.150 HD
ATOM      5  O   ARG A   1      40.559  34.825  16.922  0.00  0.00    -0.274 OA
BRANCH   3   6
ATOM      6  CA  PHE A   2      37.833  35.248  16.827  0.00  0.00    +0.141 C 
BRANCH   6   7
ATOM      7  C   PHE A   2      37.133  35.561  15.495  0.00  0.00    +0.227 C 
ATOM      8  O   PHE A   2      36.167  34.890  15.110  0.00  0.00    -0.286 OA
ENDBRANCH   6   7
BRANCH   6   9
ATOM      9  CB  PHE A   2      36.866  34.954  17.981  0.00  0.00    +0.054 C 
BRANCH   9  10
ATOM     10  CG  PHE A   2      37.574  34.531  19.236  0.00  0.00    -0.020 A 
ATOM     11  CD2 PHE A   2      37.790  35.438  20.266  0.00  0.00    -0.004 A 
ATOM     12  CE2 PHE A   2      38.470  35.061  21.416  0.00  0.00    -0.000 A 
ATOM     13  CZ  PHE A   2      38.969  33.765  21.537  0.00  0.00    -0.000 A 
ATOM     14  CE1 PHE A   2      38.780  32.854  20.507  0.00  0.00    -0.000 A 
ATOM     15  CD1 PHE A   2      38.090  33.242  19.357  0.00  0.00    -0.004 A 
ENDBRANCH   9  10
ENDBRANCH   6   9
ENDBRANCH   3   6
ENDBRANCH   1   2
BRANCH   1  16
ATOM     16  N   ARG A   1      40.458  38.257  18.086  0.00  0.00    -0.238 NA
ATOM     17  H   ARG A   1      40.250  38.635  19.032  0.00  0.00    +0.142 HD
ENDBRANCH   1  16
BRANCH   1  18
ATOM     18  CB  ARG A   1      41.473  36.419  19.360  0.00  0.00    +0.030 C 
BRANCH  18  19
ATOM     19  CG  ARG A   1      42.662  37.144  19.979  0.00  0.00    +0.045 C 
BRANCH  19  20
ATOM     20  CD  ARG A   1      42.787  36.811  21.465  0.00  0.00    +0.174 C 
BRANCH  20  21
ATOM     21  NE  ARG A   1      42.937  35.372  21.692  0.00  0.00    -0.265 N 
ATOM     22  CZ  ARG A   1      42.564  34.739  22.802  0.00  0.00    +0.342 C 
ATOM     23  NH2 ARG A   1      42.003  35.411  23.803  0.00  0.00    -0.292 N 
ATOM     24 HH21 ARG A   1      41.714  34.911  24.668  0.00  0.00    +0.255 HD
ATOM     25 HH22 ARG A   1      41.853  36.437  23.721  0.00  0.00    +0.255 HD
ATOM     26  NH1 ARG A   1      42.744  33.427  22.907  0.00  0.00    -0.292 N 
ATOM     27 HH11 ARG A   1      42.453  32.930  23.773  0.00  0.00    +0.255 HD
ATOM     28 HH12 ARG A   1      43.175  32.897  22.123  0.00  0.00    +0.255 HD
ATOM     29  HE  ARG A   1      43.365  34.805  20.933  0.00  0.00    +0.259 HD
ENDBRANCH  20  21
ENDBRANCH  19  20
ENDBRANCH  18  19
ENDBRANCH   1  18
TORSDOF 10
REMARK  Name = ../refined-set-2016/3ebo/3ebo_pocket.pdb
REMARK  121 active torsions:
REMARK  status: ('A' for Active; 'I' for Inactive)
REMARK    1  A    between atoms: _2  and  _3
REMARK    2  A    between atoms: _8  and  _10
REMARK    3  A    between atoms: _10  and  _11
REMARK    4  A    between atoms: _10  and  _13
REMARK    5  A    between atoms: _13  and  _14
REMARK    6  A    between atoms: _19  and  _21
REMARK    7  A    between atoms: _21  and  _22
REMARK    8  A    between atoms: _21  and  _24
REMARK    9  A    between atoms: _24  and  _25
REMARK   10  A    between atoms: _28  and  _30
REMARK   11  A    between atoms: _30  and  _31
REMARK   12  A    between atoms: _30  and  _33
REMARK   13  A    between atoms: _33  and  _34
REMARK   14  A    between atoms: _39  and  _41
REMARK   15  A    between atoms: _41  and  _42
REMARK   16  A    between atoms: _41  and  _44
REMARK   17  A    between atoms: _44  and  _45
REMARK   18  A    between atoms: _51  and  _53
REMARK   19  A    between atoms: _53  and  _54
REMARK   20  A    between atoms: _53  and  _56
REMARK   21  A    between atoms: _56  and  _57
REMARK   22  A    between atoms: _63  and  _65
REMARK   23  A    between atoms: _65  and  _66
REMARK   24  A    between atoms: _65  and  _68
REMARK   25  A    between atoms: _68  and  _69
REMARK   26  A    between atoms: _69  and  _70
REMARK   27  A    between atoms: _73  and  _75
REMARK   28  A    between atoms: _75  and  _76
REMARK   29  A    between atoms: _75  and  _78
REMARK   30  A    between atoms: _78  and  _79
REMARK   31  A    between atoms: _82  and  _84
REMARK   32  A    between atoms: _84  and  _85
REMARK   33  A    between atoms: _84  and  _87
REMARK   34  A    between atoms: _87  and  _88
REMARK   35  A    between atoms: _92  and  _93
REMARK   36  A    between atoms: _98  and  _100
REMARK   37  A    between atoms: _100  and  _101
REMARK   38  A    between atoms: _100  and  _103
REMARK   39  A    between atoms: _103  and  _104
REMARK   40  A    between atoms: _104  and  _105
REMARK   41  A    between atoms: _108  and  _110
REMARK   42  A    between atoms: _110  and  _111
REMARK   43  A    between atoms: _114  and  _116
REMARK   44  A    between atoms: _116  and  _117
REMARK   45  A    between atoms: _116  and  _119
REMARK   46  A    between atoms: _119  and  _120
REMARK   47  A    between atoms: _123  and  _125
REMARK   48  A    between atoms: _125  and  _126
REMARK   49  A    between atoms: _125  and  _128
REMARK   50  A    between atoms: _128  and  _129
REMARK   51  A    between atoms: _129  and  _130
REMARK   52  A    between atoms: _130  and  _131
REMARK   53  A    between atoms: _140  and  _142
REMARK   54  A    between atoms: _142  and  _143
REMARK   55  A    between atoms: _142  and  _145
REMARK   56  A    between atoms: _145  and  _146
REMARK   57  A    between atoms: _149  and  _151
REMARK   58  A    between atoms: _151  and  _152
REMARK   59  A    between atoms: _151  and  _154
REMARK   60  A    between atoms: _154  and  _155
REMARK   61  A    between atoms: _160  and  _162
REMARK   62  A    between atoms: _162  and  _163
REMARK   63  A    between atoms: _162  and  _165
REMARK   64  A    between atoms: _165  and  _166
REMARK   65  A    between atoms: _166  and  _167
REMARK   66  A    between atoms: _170  and  _172
REMARK   67  A    between atoms: _172  and  _173
REMARK   68  A    between atoms: _172  and  _175
REMARK   69  A    between atoms: _175  and  _176
REMARK   70  A    between atoms: _181  and  _182
REMARK   71  A    between atoms: _184  and  _186
REMARK   72  A    between atoms: _186  and  _187
REMARK   73  A    between atoms: _186  and  _189
REMARK   74  A    between atoms: _189  and  _190
REMARK   75  A    between atoms: _190  and  _191
REMARK   76  A    between atoms: _191  and  _192
REMARK   77  A    between atoms: _192  and  _193
REMARK   78  A    between atoms: _197  and  _199
REMARK   79  A    between atoms: _199  and  _200
REMARK   80  A    between atoms: _203  and  _205
REMARK   81  A    between atoms: _205  and  _206
REMARK   82  A    between atoms: _210  and  _211
REMARK   83  A    between atoms: _216  and  _218
REMARK   84  A    between atoms: _218  and  _219
REMARK   85  A    between atoms: _221  and  _223
REMARK   86  A    between atoms: _223  and  _224
REMARK   87  A    between atoms: _223  and  _226
REMARK   88  A    between atoms: _226  and  _227
REMARK   89  A    between atoms: _232  and  _233
REMARK   90  A    between atoms: _235  and  _237
REMARK   91  A    between atoms: _237  and  _238
REMARK   92  A    between atoms: _237  and  _240
REMARK   93  A    between atoms: _240  and  _241
REMARK   94  A    between atoms: _246  and  _248
REMARK   95  A    between atoms: _248  and  _249
REMARK   96  A    between atoms: _248  and  _251
REMARK   97  A    between atoms: _251  and  _252
REMARK   98  A    between atoms: _252  and  _253
REMARK   99  A    between atoms: _255  and  _257
REMARK  100  A    between atoms: _257  and  _258
REMARK  101  A    between atoms: _261  and  _263
REMARK  102  A    between atoms: _263  and  _264
REMARK  103  A    between atoms: _263  and  _266
REMARK  104  A    between atoms: _266  and  _267
REMARK  105  A    between atoms: _267  and  _268
REMARK  106  A    between atoms: _268  and  _269
REMARK  107  A    between atoms: _269  and  _270
REMARK  108  A    between atoms: _274  and  _276
REMARK  109  A    between atoms: _276  and  _277
REMARK  110  A    between atoms: _276  and  _279
REMARK  111  A    between atoms: _279  and  _280
REMARK  112  A    between atoms: _283  and  _285
REMARK  113  A    between atoms: _285  and  _286
REMARK  114  A    between atoms: _285  and  _288
REMARK  115  A    between atoms: _288  and  _289
REMARK  116  A    between atoms: _289  and  _290
REMARK  117  A    between atoms: _290  and  _291
REMARK  118  A    between atoms: _300  and  _302
REMARK  119  A    between atoms: _302  and  _303
REMARK  120  A    between atoms: _302  and  _305
REMARK  121  A    between atoms: _305  and  _306
REMARK                            x       y       z     vdW  Elec       q    Type
REMARK                         _______ _______ _______ _____ _____    ______ ____
ROOT
ATOM      1  O   HOH     1      38.339  29.648  37.535  0.00  0.00    +0.000 OA
ENDROOT
TORSDOF 0
REMARK  Name = ../refined-set-2016/3ebo/3ebo_pocket.pdb
REMARK  121 active torsions:
REMARK  status: ('A' for Active; 'I' for Inactive)
REMARK    1  A    between atoms: _2  and  _3
REMARK    2  A    between atoms: _8  and  _10
REMARK    3  A    between atoms: _10  and  _11
REMARK    4  A    between atoms: _10  and  _13
REMARK    5  A    between atoms: _13  and  _14
REMARK    6  A    between atoms: _19  and  _21
REMARK    7  A    between atoms: _21  and  _22
REMARK    8  A    between atoms: _21  and  _24
REMARK    9  A    between atoms: _24  and  _25
REMARK   10  A    between atoms: _28  and  _30
REMARK   11  A    between atoms: _30  and  _31
REMARK   12  A    between atoms: _30  and  _33
REMARK   13  A    between atoms: _33  and  _34
REMARK   14  A    between atoms: _39  and  _41
REMARK   15  A    between atoms: _41  and  _42
REMARK   16  A    between atoms: _41  and  _44
REMARK   17  A    between atoms: _44  and  _45
REMARK   18  A    between atoms: _51  and  _53
REMARK   19  A    between atoms: _53  and  _54
REMARK   20  A    between atoms: _53  and  _56
REMARK   21  A    between atoms: _56  and  _57
REMARK   22  A    between atoms: _63  and  _65
REMARK   23  A    between atoms: _65  and  _66
REMARK   24  A    between atoms: _65  and  _68
REMARK   25  A    between atoms: _68  and  _69
REMARK   26  A    between atoms: _69  and  _70
REMARK   27  A    between atoms: _73  and  _75
REMARK   28  A    between atoms: _75  and  _76
REMARK   29  A    between atoms: _75  and  _78
REMARK   30  A    between atoms: _78  and  _79
REMARK   31  A    between atoms: _82  and  _84
REMARK   32  A    between atoms: _84  and  _85
REMARK   33  A    between atoms: _84  and  _87
REMARK   34  A    between atoms: _87  and  _88
REMARK   35  A    between atoms: _92  and  _93
REMARK   36  A    between atoms: _98  and  _100
REMARK   37  A    between atoms: _100  and  _101
REMARK   38  A    between atoms: _100  and  _103
REMARK   39  A    between atoms: _103  and  _104
REMARK   40  A    between atoms: _104  and  _105
REMARK   41  A    between atoms: _108  and  _110
REMARK   42  A    between atoms: _110  and  _111
REMARK   43  A    between atoms: _114  and  _116
REMARK   44  A    between atoms: _116  and  _117
REMARK   45  A    between atoms: _116  and  _119
REMARK   46  A    between atoms: _119  and  _120
REMARK   47  A    between atoms: _123  and  _125
REMARK   48  A    between atoms: _125  and  _126
REMARK   49  A    between atoms: _125  and  _128
REMARK   50  A    between atoms: _128  and  _129
REMARK   51  A    between atoms: _129  and  _130
REMARK   52  A    between atoms: _130  and  _131
REMARK   53  A    between atoms: _140  and  _142
REMARK   54  A    between atoms: _142  and  _143
REMARK   55  A    between atoms: _142  and  _145
REMARK   56  A    between atoms: _145  and  _146
REMARK   57  A    between atoms: _149  and  _151
REMARK   58  A    between atoms: _151  and  _152
REMARK   59  A    between atoms: _151  and  _154
REMARK   60  A    between atoms: _154  and  _155
REMARK   61  A    between atoms: _160  and  _162
REMARK   62  A    between atoms: _162  and  _163
REMARK   63  A    between atoms: _162  and  _165
REMARK   64  A    between atoms: _165  and  _166
REMARK   65  A    between atoms: _166  and  _167
REMARK   66  A    between atoms: _170  and  _172
REMARK   67  A    between atoms: _172  and  _173
REMARK   68  A    between atoms: _172  and  _175
REMARK   69  A    between atoms: _175  and  _176
REMARK   70  A    between atoms: _181  and  _182
REMARK   71  A    between atoms: _184  and  _186
REMARK   72  A    between atoms: _186  and  _187
REMARK   73  A    between atoms: _186  and  _189
REMARK   74  A    between atoms: _189  and  _190
REMARK   75  A    between atoms: _190  and  _191
REMARK   76  A    between atoms: _191  and  _192
REMARK   77  A    between atoms: _192  and  _193
REMARK   78  A    between atoms: _197  and  _199
REMARK   79  A    between atoms: _199  and  _200
REMARK   80  A    between atoms: _203  and  _205
REMARK   81  A    between atoms: _205  and  _206
REMARK   82  A    between atoms: _210  and  _211
REMARK   83  A    between atoms: _216  and  _218
REMARK   84  A    between atoms: _218  and  _219
REMARK   85  A    between atoms: _221  and  _223
REMARK   86  A    between atoms: _223  and  _224
REMARK   87  A    between atoms: _223  and  _226
REMARK   88  A    between atoms: _226  and  _227
REMARK   89  A    between atoms: _232  and  _233
REMARK   90  A    between atoms: _235  and  _237
REMARK   91  A    between atoms: _237  and  _238
REMARK   92  A    between atoms: _237  and  _240
REMARK   93  A    between atoms: _240  and  _241
REMARK   94  A    between atoms: _246  and  _248
REMARK   95  A    between atoms: _248  and  _249
REMARK   96  A    between atoms: _248  and  _251
REMARK   97  A    between atoms: _251  and  _252
REMARK   98  A    between atoms: _252  and  _253
REMARK   99  A    between atoms: _255  and  _257
REMARK  100  A    between atoms: _257  and  _258
REMARK  101  A    between atoms: _261  and  _263
REMARK  102  A    between atoms: _263  and  _264
REMARK  103  A    between atoms: _263  and  _266
REMARK  104  A    between atoms: _266  and  _267
REMARK  105  A    between atoms: _267  and  _268
REMARK  106  A    between atoms: _268  and  _269
REMARK  107  A    between atoms: _269  and  _270
REMARK  108  A    between atoms: _274  and  _276
REMARK  109  A    between atoms: _276  and  _277
REMARK  110  A    between atoms: _276  and  _279
REMARK  111  A    between atoms: _279  and  _280
REMARK  112  A    between atoms: _283  and  _285
REMARK  113  A    between atoms: _285  and  _286
REMARK  114  A    between atoms: _285  and  _288
REMARK  115  A    between atoms: _288  and  _289
REMARK  116  A    between atoms: _289  and  _290
REMARK  117  A    between atoms: _290  and  _291
REMARK  118  A    between atoms: _300  and  _302
REMARK  119  A    between atoms: _302  and  _303
REMARK  120  A    between atoms: _302  and  _305
REMARK  121  A    between atoms: _305  and  _306
REMARK                            x       y       z     vdW  Elec       q    Type
REMARK                         _______ _______ _______ _____ _____    ______ ____
ROOT
ATOM      1  O   HOH     1      36.732  25.746  24.198  0.00  0.00    +0.000 OA
ENDROOT
TORSDOF 0
REMARK  Name = ../refined-set-2016/3ebo/3ebo_pocket.pdb
REMARK  121 active torsions:
REMARK  status: ('A' for Active; 'I' for Inactive)
REMARK    1  A    between atoms: _2  and  _3
REMARK    2  A    between atoms: _8  and  _10
REMARK    3  A    between atoms: _10  and  _11
REMARK    4  A    between atoms: _10  and  _13
REMARK    5  A    between atoms: _13  and  _14
REMARK    6  A    between atoms: _19  and  _21
REMARK    7  A    between atoms: _21  and  _22
REMARK    8  A    between atoms: _21  and  _24
REMARK    9  A    between atoms: _24  and  _25
REMARK   10  A    between atoms: _28  and  _30
REMARK   11  A    between atoms: _30  and  _31
REMARK   12  A    between atoms: _30  and  _33
REMARK   13  A    between atoms: _33  and  _34
REMARK   14  A    between atoms: _39  and  _41
REMARK   15  A    between atoms: _41  and  _42
REMARK   16  A    between atoms: _41  and  _44
REMARK   17  A    between atoms: _44  and  _45
REMARK   18  A    between atoms: _51  and  _53
REMARK   19  A    between atoms: _53  and  _54
REMARK   20  A    between atoms: _53  and  _56
REMARK   21  A    between atoms: _56  and  _57
REMARK   22  A    between atoms: _63  and  _65
REMARK   23  A    between atoms: _65  and  _66
REMARK   24  A    between atoms: _65  and  _68
REMARK   25  A    between atoms: _68  and  _69
REMARK   26  A    between atoms: _69  and  _70
REMARK   27  A    between atoms: _73  and  _75
REMARK   28  A    between atoms: _75  and  _76
REMARK   29  A    between atoms: _75  and  _78
REMARK   30  A    between atoms: _78  and  _79
REMARK   31  A    between atoms: _82  and  _84
REMARK   32  A    between atoms: _84  and  _85
REMARK   33  A    between atoms: _84  and  _87
REMARK   34  A    between atoms: _87  and  _88
REMARK   35  A    between atoms: _92  and  _93
REMARK   36  A    between atoms: _98  and  _100
REMARK   37  A    between atoms: _100  and  _101
REMARK   38  A    between atoms: _100  and  _103
REMARK   39  A    between atoms: _103  and  _104
REMARK   40  A    between atoms: _104  and  _105
REMARK   41  A    between atoms: _108  and  _110
REMARK   42  A    between atoms: _110  and  _111
REMARK   43  A    between atoms: _114  and  _116
REMARK   44  A    between atoms: _116  and  _117
REMARK   45  A    between atoms: _116  and  _119
REMARK   46  A    between atoms: _119  and  _120
REMARK   47  A    between atoms: _123  and  _125
REMARK   48  A    between atoms: _125  and  _126
REMARK   49  A    between atoms: _125  and  _128
REMARK   50  A    between atoms: _128  and  _129
REMARK   51  A    between atoms: _129  and  _130
REMARK   52  A    between atoms: _130  and  _131
REMARK   53  A    between atoms: _140  and  _142
REMARK   54  A    between atoms: _142  and  _143
REMARK   55  A    between atoms: _142  and  _145
REMARK   56  A    between atoms: _145  and  _146
REMARK   57  A    between atoms: _149  and  _151
REMARK   58  A    between atoms: _151  and  _152
REMARK   59  A    between atoms: _151  and  _154
REMARK   60  A    between atoms: _154  and  _155
REMARK   61  A    between atoms: _160  and  _162
REMARK   62  A    between atoms: _162  and  _163
REMARK   63  A    between atoms: _162  and  _165
REMARK   64  A    between atoms: _165  and  _166
REMARK   65  A    between atoms: _166  and  _167
REMARK   66  A    between atoms: _170  and  _172
REMARK   67  A    between atoms: _172  and  _173
REMARK   68  A    between atoms: _172  and  _175
REMARK   69  A    between atoms: _175  and  _176
REMARK   70  A    between atoms: _181  and  _182
REMARK   71  A    between atoms: _184  and  _186
REMARK   72  A    between atoms: _186  and  _187
REMARK   73  A    between atoms: _186  and  _189
REMARK   74  A    between atoms: _189  and  _190
REMARK   75  A    between atoms: _190  and  _191
REMARK   76  A    between atoms: _191  and  _192
REMARK   77  A    between atoms: _192  and  _193
REMARK   78  A    between atoms: _197  and  _199
REMARK   79  A    between atoms: _199  and  _200
REMARK   80  A    between atoms: _203  and  _205
REMARK   81  A    between atoms: _205  and  _206
REMARK   82  A    between atoms: _210  and  _211
REMARK   83  A    between atoms: _216  and  _218
REMARK   84  A    between atoms: _218  and  _219
REMARK   85  A    between atoms: _221  and  _223
REMARK   86  A    between atoms: _223  and  _224
REMARK   87  A    between atoms: _223  and  _226
REMARK   88  A    between atoms: _226  and  _227
REMARK   89  A    between atoms: _232  and  _233
REMARK   90  A    between atoms: _235  and  _237
REMARK   91  A    between atoms: _237  and  _238
REMARK   92  A    between atoms: _237  and  _240
REMARK   93  A    between atoms: _240  and  _241
REMARK   94  A    between atoms: _246  and  _248
REMARK   95  A    between atoms: _248  and  _249
REMARK   96  A    between atoms: _248  and  _251
REMARK   97  A    between atoms: _251  and  _252
REMARK   98  A    between atoms: _252  and  _253
REMARK   99  A    between atoms: _255  and  _257
REMARK  100  A    between atoms: _257  and  _258
REMARK  101  A    between atoms: _261  and  _263
REMARK  102  A    between atoms: _263  and  _264
REMARK  103  A    between atoms: _263  and  _266
REMARK  104  A    between atoms: _266  and  _267
REMARK  105  A    between atoms: _267  and  _268
REMARK  106  A    between atoms: _268  and  _269
REMARK  107  A    between atoms: _269  and  _270
REMARK  108  A    between atoms: _274  and  _276
REMARK  109  A    between atoms: _276  and  _277
REMARK  110  A    between atoms: _276  and  _279
REMARK  111  A    between atoms: _279  and  _280
REMARK  112  A    between atoms: _283  and  _285
REMARK  113  A    between atoms: _285  and  _286
REMARK  114  A    between atoms: _285  and  _288
REMARK  115  A    between atoms: _288  and  _289
REMARK  116  A    between atoms: _289  and  _290
REMARK  117  A    between atoms: _290  and  _291
REMARK  118  A    between atoms: _300  and  _302
REMARK  119  A    between atoms: _302  and  _303
REMARK  120  A    between atoms: _302  and  _305
REMARK  121  A    between atoms: _305  and  _306
REMARK                            x       y       z     vdW  Elec       q    Type
REMARK                         _______ _______ _______ _____ _____    ______ ____
ROOT
ATOM      1  O   HOH     1      35.818  33.754  25.114  0.00  0.00    +0.000 OA
ENDROOT
TORSDOF 0
REMARK  Name = ../refined-set-2016/3ebo/3ebo_pocket.pdb
REMARK  121 active torsions:
REMARK  status: ('A' for Active; 'I' for Inactive)
REMARK    1  A    between atoms: _2  and  _3
REMARK    2  A    between atoms: _8  and  _10
REMARK    3  A    between atoms: _10  and  _11
REMARK    4  A    between atoms: _10  and  _13
REMARK    5  A    between atoms: _13  and  _14
REMARK    6  A    between atoms: _19  and  _21
REMARK    7  A    between atoms: _21  and  _22
REMARK    8  A    between atoms: _21  and  _24
REMARK    9  A    between atoms: _24  and  _25
REMARK   10  A    between atoms: _28  and  _30
REMARK   11  A    between atoms: _30  and  _31
REMARK   12  A    between atoms: _30  and  _33
REMARK   13  A    between atoms: _33  and  _34
REMARK   14  A    between atoms: _39  and  _41
REMARK   15  A    between atoms: _41  and  _42
REMARK   16  A    between atoms: _41  and  _44
REMARK   17  A    between atoms: _44  and  _45
REMARK   18  A    between atoms: _51  and  _53
REMARK   19  A    between atoms: _53  and  _54
REMARK   20  A    between atoms: _53  and  _56
REMARK   21  A    between atoms: _56  and  _57
REMARK   22  A    between atoms: _63  and  _65
REMARK   23  A    between atoms: _65  and  _66
REMARK   24  A    between atoms: _65  and  _68
REMARK   25  A    between atoms: _68  and  _69
REMARK   26  A    between atoms: _69  and  _70
REMARK   27  A    between atoms: _73  and  _75
REMARK   28  A    between atoms: _75  and  _76
REMARK   29  A    between atoms: _75  and  _78
REMARK   30  A    between atoms: _78  and  _79
REMARK   31  A    between atoms: _82  and  _84
REMARK   32  A    between atoms: _84  and  _85
REMARK   33  A    between atoms: _84  and  _87
REMARK   34  A    between atoms: _87  and  _88
REMARK   35  A    between atoms: _92  and  _93
REMARK   36  A    between atoms: _98  and  _100
REMARK   37  A    between atoms: _100  and  _101
REMARK   38  A    between atoms: _100  and  _103
REMARK   39  A    between atoms: _103  and  _104
REMARK   40  A    between atoms: _104  and  _105
REMARK   41  A    between atoms: _108  and  _110
REMARK   42  A    between atoms: _110  and  _111
REMARK   43  A    between atoms: _114  and  _116
REMARK   44  A    between atoms: _116  and  _117
REMARK   45  A    between atoms: _116  and  _119
REMARK   46  A    between atoms: _119  and  _120
REMARK   47  A    between atoms: _123  and  _125
REMARK   48  A    between atoms: _125  and  _126
REMARK   49  A    between atoms: _125  and  _128
REMARK   50  A    between atoms: _128  and  _129
REMARK   51  A    between atoms: _129  and  _130
REMARK   52  A    between atoms: _130  and  _131
REMARK   53  A    between atoms: _140  and  _142
REMARK   54  A    between atoms: _142  and  _143
REMARK   55  A    between atoms: _142  and  _145
REMARK   56  A    between atoms: _145  and  _146
REMARK   57  A    between atoms: _149  and  _151
REMARK   58  A    between atoms: _151  and  _152
REMARK   59  A    between atoms: _151  and  _154
REMARK   60  A    between atoms: _154  and  _155
REMARK   61  A    between atoms: _160  and  _162
REMARK   62  A    between atoms: _162  and  _163
REMARK   63  A    between atoms: _162  and  _165
REMARK   64  A    between atoms: _165  and  _166
REMARK   65  A    between atoms: _166  and  _167
REMARK   66  A    between atoms: _170  and  _172
REMARK   67  A    between atoms: _172  and  _173
REMARK   68  A    between atoms: _172  and  _175
REMARK   69  A    between atoms: _175  and  _176
REMARK   70  A    between atoms: _181  and  _182
REMARK   71  A    between atoms: _184  and  _186
REMARK   72  A    between atoms: _186  and  _187
REMARK   73  A    between atoms: _186  and  _189
REMARK   74  A    between atoms: _189  and  _190
REMARK   75  A    between atoms: _190  and  _191
REMARK   76  A    between atoms: _191  and  _192
REMARK   77  A    between atoms: _192  and  _193
REMARK   78  A    between atoms: _197  and  _199
REMARK   79  A    between atoms: _199  and  _200
REMARK   80  A    between atoms: _203  and  _205
REMARK   81  A    between atoms: _205  and  _206
REMARK   82  A    between atoms: _210  and  _211
REMARK   83  A    between atoms: _216  and  _218
REMARK   84  A    between atoms: _218  and  _219
REMARK   85  A    between atoms: _221  and  _223
REMARK   86  A    between atoms: _223  and  _224
REMARK   87  A    between atoms: _223  and  _226
REMARK   88  A    between atoms: _226  and  _227
REMARK   89  A    between atoms: _232  and  _233
REMARK   90  A    between atoms: _235  and  _237
REMARK   91  A    between atoms: _237  and  _238
REMARK   92  A    between atoms: _237  and  _240
REMARK   93  A    between atoms: _240  and  _241
REMARK   94  A    between atoms: _246  and  _248
REMARK   95  A    between atoms: _248  and  _249
REMARK   96  A    between atoms: _248  and  _251
REMARK   97  A    between atoms: _251  and  _252
REMARK   98  A    between atoms: _252  and  _253
REMARK   99  A    between atoms: _255  and  _257
REMARK  100  A    between atoms: _257  and  _258
REMARK  101  A    between atoms: _261  and  _263
REMARK  102  A    between atoms: _263  and  _264
REMARK  103  A    between atoms: _263  and  _266
REMARK  104  A    between atoms: _266  and  _267
REMARK  105  A    between atoms: _267  and  _268
REMARK  106  A    between atoms: _268  and  _269
REMARK  107  A    between atoms: _269  and  _270
REMARK  108  A    between atoms: _274  and  _276
REMARK  109  A    between atoms: _276  and  _277
REMARK  110  A    between atoms: _276  and  _279
REMARK  111  A    between atoms: _279  and  _280
REMARK  112  A    between atoms: _283  and  _285
REMARK  113  A    between atoms: _285  and  _286
REMARK  114  A    between atoms: _285  and  _288
REMARK  115  A    between atoms: _288  and  _289
REMARK  116  A    between atoms: _289  and  _290
REMARK  117  A    between atoms: _290  and  _291
REMARK  118  A    between atoms: _300  and  _302
REMARK  119  A    between atoms: _302  and  _303
REMARK  120  A    between atoms: _302  and  _305
REMARK  121  A    between atoms: _305  and  _306
REMARK                            x       y       z     vdW  Elec       q    Type
REMARK                         _______ _______ _______ _____ _____    ______ ____
ROOT
ATOM      1  O   HOH     1      40.052  37.653  23.994  0.00  0.00    +0.000 OA
ENDROOT
TORSDOF 0
REMARK  Name = ../refined-set-2016/3ebo/3ebo_pocket.pdb
REMARK  121 active torsions:
REMARK  status: ('A' for Active; 'I' for Inactive)
REMARK    1  A    between atoms: _2  and  _3
REMARK    2  A    between atoms: _8  and  _10
REMARK    3  A    between atoms: _10  and  _11
REMARK    4  A    between atoms: _10  and  _13
REMARK    5  A    between atoms: _13  and  _14
REMARK    6  A    between atoms: _19  and  _21
REMARK    7  A    between atoms: _21  and  _22
REMARK    8  A    between atoms: _21  and  _24
REMARK    9  A    between atoms: _24  and  _25
REMARK   10  A    between atoms: _28  and  _30
REMARK   11  A    between atoms: _30  and  _31
REMARK   12  A    between atoms: _30  and  _33
REMARK   13  A    between atoms: _33  and  _34
REMARK   14  A    between atoms: _39  and  _41
REMARK   15  A    between atoms: _41  and  _42
REMARK   16  A    between atoms: _41  and  _44
REMARK   17  A    between atoms: _44  and  _45
REMARK   18  A    between atoms: _51  and  _53
REMARK   19  A    between atoms: _53  and  _54
REMARK   20  A    between atoms: _53  and  _56
REMARK   21  A    between atoms: _56  and  _57
REMARK   22  A    between atoms: _63  and  _65
REMARK   23  A    between atoms: _65  and  _66
REMARK   24  A    between atoms: _65  and  _68
REMARK   25  A    between atoms: _68  and  _69
REMARK   26  A    between atoms: _69  and  _70
REMARK   27  A    between atoms: _73  and  _75
REMARK   28  A    between atoms: _75  and  _76
REMARK   29  A    between atoms: _75  and  _78
REMARK   30  A    between atoms: _78  and  _79
REMARK   31  A    between atoms: _82  and  _84
REMARK   32  A    between atoms: _84  and  _85
REMARK   33  A    between atoms: _84  and  _87
REMARK   34  A    between atoms: _87  and  _88
REMARK   35  A    between atoms: _92  and  _93
REMARK   36  A    between atoms: _98  and  _100
REMARK   37  A    between atoms: _100  and  _101
REMARK   38  A    between atoms: _100  and  _103
REMARK   39  A    between atoms: _103  and  _104
REMARK   40  A    between atoms: _104  and  _105
REMARK   41  A    between atoms: _108  and  _110
REMARK   42  A    between atoms: _110  and  _111
REMARK   43  A    between atoms: _114  and  _116
REMARK   44  A    between atoms: _116  and  _117
REMARK   45  A    between atoms: _116  and  _119
REMARK   46  A    between atoms: _119  and  _120
REMARK   47  A    between atoms: _123  and  _125
REMARK   48  A    between atoms: _125  and  _126
REMARK   49  A    between atoms: _125  and  _128
REMARK   50  A    between atoms: _128  and  _129
REMARK   51  A    between atoms: _129  and  _130
REMARK   52  A    between atoms: _130  and  _131
REMARK   53  A    between atoms: _140  and  _142
REMARK   54  A    between atoms: _142  and  _143
REMARK   55  A    between atoms: _142  and  _145
REMARK   56  A    between atoms: _145  and  _146
REMARK   57  A    between atoms: _149  and  _151
REMARK   58  A    between atoms: _151  and  _152
REMARK   59  A    between atoms: _151  and  _154
REMARK   60  A    between atoms: _154  and  _155
REMARK   61  A    between atoms: _160  and  _162
REMARK   62  A    between atoms: _162  and  _163
REMARK   63  A    between atoms: _162  and  _165
REMARK   64  A    between atoms: _165  and  _166
REMARK   65  A    between atoms: _166  and  _167
REMARK   66  A    between atoms: _170  and  _172
REMARK   67  A    between atoms: _172  and  _173
REMARK   68  A    between atoms: _172  and  _175
REMARK   69  A    between atoms: _175  and  _176
REMARK   70  A    between atoms: _181  and  _182
REMARK   71  A    between atoms: _184  and  _186
REMARK   72  A    between atoms: _186  and  _187
REMARK   73  A    between atoms: _186  and  _189
REMARK   74  A    between atoms: _189  and  _190
REMARK   75  A    between atoms: _190  and  _191
REMARK   76  A    between atoms: _191  and  _192
REMARK   77  A    between atoms: _192  and  _193
REMARK   78  A    between atoms: _197  and  _199
REMARK   79  A    between atoms: _199  and  _200
REMARK   80  A    between atoms: _203  and  _205
REMARK   81  A    between atoms: _205  and  _206
REMARK   82  A    between atoms: _210  and  _211
REMARK   83  A    between atoms: _216  and  _218
REMARK   84  A    between atoms: _218  and  _219
REMARK   85  A    between atoms: _221  and  _223
REMARK   86  A    between atoms: _223  and  _224
REMARK   87  A    between atoms: _223  and  _226
REMARK   88  A    between atoms: _226  and  _227
REMARK   89  A    between atoms: _232  and  _233
REMARK   90  A    between atoms: _235  and  _237
REMARK   91  A    between atoms: _237  and  _238
REMARK   92  A    between atoms: _237  and  _240
REMARK   93  A    between atoms: _240  and  _241
REMARK   94  A    between atoms: _246  and  _248
REMARK   95  A    between atoms: _248  and  _249
REMARK   96  A    between atoms: _248  and  _251
REMARK   97  A    between atoms: _251  and  _252
REMARK   98  A    between atoms: _252  and  _253
REMARK   99  A    between atoms: _255  and  _257
REMARK  100  A    between atoms: _257  and  _258
REMARK  101  A    between atoms: _261  and  _263
REMARK  102  A    between atoms: _263  and  _264
REMARK  103  A    between atoms: _263  and  _266
REMARK  104  A    between atoms: _266  and  _267
REMARK  105  A    between atoms: _267  and  _268
REMARK  106  A    between atoms: _268  and  _269
REMARK  107  A    between atoms: _269  and  _270
REMARK  108  A    between atoms: _274  and  _276
REMARK  109  A    between atoms: _276  and  _277
REMARK  110  A    between atoms: _276  and  _279
REMARK  111  A    between atoms: _279  and  _280
REMARK  112  A    between atoms: _283  and  _285
REMARK  113  A    between atoms: _285  and  _286
REMARK  114  A    between atoms: _285  and  _288
REMARK  115  A    between atoms: _288  and  _289
REMARK  116  A    between atoms: _289  and  _290
REMARK  117  A    between atoms: _290  and  _291
REMARK  118  A    between atoms: _300  and  _302
REMARK  119  A    between atoms: _302  and  _303
REMARK  120  A    between atoms: _302  and  _305
REMARK  121  A    between atoms: _305  and  _306
REMARK                            x       y       z     vdW  Elec       q    Type
REMARK                         _______ _______ _______ _____ _____    ______ ____
ROOT
ATOM      1  O   HOH     1      39.267  38.861  20.953  0.00  0.00    +0.000 OA
ENDROOT
TORSDOF 0
REMARK  Name = ../refined-set-2016/3ebo/3ebo_pocket.pdb
REMARK  121 active torsions:
REMARK  status: ('A' for Active; 'I' for Inactive)
REMARK    1  A    between atoms: _2  and  _3
REMARK    2  A    between atoms: _8  and  _10
REMARK    3  A    between atoms: _10  and  _11
REMARK    4  A    between atoms: _10  and  _13
REMARK    5  A    between atoms: _13  and  _14
REMARK    6  A    between atoms: _19  and  _21
REMARK    7  A    between atoms: _21  and  _22
REMARK    8  A    between atoms: _21  and  _24
REMARK    9  A    between atoms: _24  and  _25
REMARK   10  A    between atoms: _28  and  _30
REMARK   11  A    between atoms: _30  and  _31
REMARK   12  A    between atoms: _30  and  _33
REMARK   13  A    between atoms: _33  and  _34
REMARK   14  A    between atoms: _39  and  _41
REMARK   15  A    between atoms: _41  and  _42
REMARK   16  A    between atoms: _41  and  _44
REMARK   17  A    between atoms: _44  and  _45
REMARK   18  A    between atoms: _51  and  _53
REMARK   19  A    between atoms: _53  and  _54
REMARK   20  A    between atoms: _53  and  _56
REMARK   21  A    between atoms: _56  and  _57
REMARK   22  A    between atoms: _63  and  _65
REMARK   23  A    between atoms: _65  and  _66
REMARK   24  A    between atoms: _65  and  _68
REMARK   25  A    between atoms: _68  and  _69
REMARK   26  A    between atoms: _69  and  _70
REMARK   27  A    between atoms: _73  and  _75
REMARK   28  A    between atoms: _75  and  _76
REMARK   29  A    between atoms: _75  and  _78
REMARK   30  A    between atoms: _78  and  _79
REMARK   31  A    between atoms: _82  and  _84
REMARK   32  A    between atoms: _84  and  _85
REMARK   33  A    between atoms: _84  and  _87
REMARK   34  A    between atoms: _87  and  _88
REMARK   35  A    between atoms: _92  and  _93
REMARK   36  A    between atoms: _98  and  _100
REMARK   37  A    between atoms: _100  and  _101
REMARK   38  A    between atoms: _100  and  _103
REMARK   39  A    between atoms: _103  and  _104
REMARK   40  A    between atoms: _104  and  _105
REMARK   41  A    between atoms: _108  and  _110
REMARK   42  A    between atoms: _110  and  _111
REMARK   43  A    between atoms: _114  and  _116
REMARK   44  A    between atoms: _116  and  _117
REMARK   45  A    between atoms: _116  and  _119
REMARK   46  A    between atoms: _119  and  _120
REMARK   47  A    between atoms: _123  and  _125
REMARK   48  A    between atoms: _125  and  _126
REMARK   49  A    between atoms: _125  and  _128
REMARK   50  A    between atoms: _128  and  _129
REMARK   51  A    between atoms: _129  and  _130
REMARK   52  A    between atoms: _130  and  _131
REMARK   53  A    between atoms: _140  and  _142
REMARK   54  A    between atoms: _142  and  _143
REMARK   55  A    between atoms: _142  and  _145
REMARK   56  A    between atoms: _145  and  _146
REMARK   57  A    between atoms: _149  and  _151
REMARK   58  A    between atoms: _151  and  _152
REMARK   59  A    between atoms: _151  and  _154
REMARK   60  A    between atoms: _154  and  _155
REMARK   61  A    between atoms: _160  and  _162
REMARK   62  A    between atoms: _162  and  _163
REMARK   63  A    between atoms: _162  and  _165
REMARK   64  A    between atoms: _165  and  _166
REMARK   65  A    between atoms: _166  and  _167
REMARK   66  A    between atoms: _170  and  _172
REMARK   67  A    between atoms: _172  and  _173
REMARK   68  A    between atoms: _172  and  _175
REMARK   69  A    between atoms: _175  and  _176
REMARK   70  A    between atoms: _181  and  _182
REMARK   71  A    between atoms: _184  and  _186
REMARK   72  A    between atoms: _186  and  _187
REMARK   73  A    between atoms: _186  and  _189
REMARK   74  A    between atoms: _189  and  _190
REMARK   75  A    between atoms: _190  and  _191
REMARK   76  A    between atoms: _191  and  _192
REMARK   77  A    between atoms: _192  and  _193
REMARK   78  A    between atoms: _197  and  _199
REMARK   79  A    between atoms: _199  and  _200
REMARK   80  A    between atoms: _203  and  _205
REMARK   81  A    between atoms: _205  and  _206
REMARK   82  A    between atoms: _210  and  _211
REMARK   83  A    between atoms: _216  and  _218
REMARK   84  A    between atoms: _218  and  _219
REMARK   85  A    between atoms: _221  and  _223
REMARK   86  A    between atoms: _223  and  _224
REMARK   87  A    between atoms: _223  and  _226
REMARK   88  A    between atoms: _226  and  _227
REMARK   89  A    between atoms: _232  and  _233
REMARK   90  A    between atoms: _235  and  _237
REMARK   91  A    between atoms: _237  and  _238
REMARK   92  A    between atoms: _237  and  _240
REMARK   93  A    between atoms: _240  and  _241
REMARK   94  A    between atoms: _246  and  _248
REMARK   95  A    between atoms: _248  and  _249
REMARK   96  A    between atoms: _248  and  _251
REMARK   97  A    between atoms: _251  and  _252
REMARK   98  A    between atoms: _252  and  _253
REMARK   99  A    between atoms: _255  and  _257
REMARK  100  A    between atoms: _257  and  _258
REMARK  101  A    between atoms: _261  and  _263
REMARK  102  A    between atoms: _263  and  _264
REMARK  103  A    between atoms: _263  and  _266
REMARK  104  A    between atoms: _266  and  _267
REMARK  105  A    between atoms: _267  and  _268
REMARK  106  A    between atoms: _268  and  _269
REMARK  107  A    between atoms: _269  and  _270
REMARK  108  A    between atoms: _274  and  _276
REMARK  109  A    between atoms: _276  and  _277
REMARK  110  A    between atoms: _276  and  _279
REMARK  111  A    between atoms: _279  and  _280
REMARK  112  A    between atoms: _283  and  _285
REMARK  113  A    between atoms: _285  and  _286
REMARK  114  A    between atoms: _285  and  _288
REMARK  115  A    between atoms: _288  and  _289
REMARK  116  A    between atoms: _289  and  _290
REMARK  117  A    between atoms: _290  and  _291
REMARK  118  A    between atoms: _300  and  _302
REMARK  119  A    between atoms: _302  and  _303
REMARK  120  A    between atoms: _302  and  _305
REMARK  121  A    between atoms: _305  and  _306
REMARK                            x       y       z     vdW  Elec       q    Type
REMARK                         _______ _______ _______ _____ _____    ______ ____
ROOT
ATOM      1  O   HOH     1      39.175  41.322  24.042  0.00  0.00    +0.000 OA
ENDROOT
TORSDOF 0
REMARK  Name = ../refined-set-2016/3ebo/3ebo_pocket.pdb
REMARK  121 active torsions:
REMARK  status: ('A' for Active; 'I' for Inactive)
REMARK    1  A    between atoms: _2  and  _3
REMARK    2  A    between atoms: _8  and  _10
REMARK    3  A    between atoms: _10  and  _11
REMARK    4  A    between atoms: _10  and  _13
REMARK    5  A    between atoms: _13  and  _14
REMARK    6  A    between atoms: _19  and  _21
REMARK    7  A    between atoms: _21  and  _22
REMARK    8  A    between atoms: _21  and  _24
REMARK    9  A    between atoms: _24  and  _25
REMARK   10  A    between atoms: _28  and  _30
REMARK   11  A    between atoms: _30  and  _31
REMARK   12  A    between atoms: _30  and  _33
REMARK   13  A    between atoms: _33  and  _34
REMARK   14  A    between atoms: _39  and  _41
REMARK   15  A    between atoms: _41  and  _42
REMARK   16  A    between atoms: _41  and  _44
REMARK   17  A    between atoms: _44  and  _45
REMARK   18  A    between atoms: _51  and  _53
REMARK   19  A    between atoms: _53  and  _54
REMARK   20  A    between atoms: _53  and  _56
REMARK   21  A    between atoms: _56  and  _57
REMARK   22  A    between atoms: _63  and  _65
REMARK   23  A    between atoms: _65  and  _66
REMARK   24  A    between atoms: _65  and  _68
REMARK   25  A    between atoms: _68  and  _69
REMARK   26  A    between atoms: _69  and  _70
REMARK   27  A    between atoms: _73  and  _75
REMARK   28  A    between atoms: _75  and  _76
REMARK   29  A    between atoms: _75  and  _78
REMARK   30  A    between atoms: _78  and  _79
REMARK   31  A    between atoms: _82  and  _84
REMARK   32  A    between atoms: _84  and  _85
REMARK   33  A    between atoms: _84  and  _87
REMARK   34  A    between atoms: _87  and  _88
REMARK   35  A    between atoms: _92  and  _93
REMARK   36  A    between atoms: _98  and  _100
REMARK   37  A    between atoms: _100  and  _101
REMARK   38  A    between atoms: _100  and  _103
REMARK   39  A    between atoms: _103  and  _104
REMARK   40  A    between atoms: _104  and  _105
REMARK   41  A    between atoms: _108  and  _110
REMARK   42  A    between atoms: _110  and  _111
REMARK   43  A    between atoms: _114  and  _116
REMARK   44  A    between atoms: _116  and  _117
REMARK   45  A    between atoms: _116  and  _119
REMARK   46  A    between atoms: _119  and  _120
REMARK   47  A    between atoms: _123  and  _125
REMARK   48  A    between atoms: _125  and  _126
REMARK   49  A    between atoms: _125  and  _128
REMARK   50  A    between atoms: _128  and  _129
REMARK   51  A    between atoms: _129  and  _130
REMARK   52  A    between atoms: _130  and  _131
REMARK   53  A    between atoms: _140  and  _142
REMARK   54  A    between atoms: _142  and  _143
REMARK   55  A    between atoms: _142  and  _145
REMARK   56  A    between atoms: _145  and  _146
REMARK   57  A    between atoms: _149  and  _151
REMARK   58  A    between atoms: _151  and  _152
REMARK   59  A    between atoms: _151  and  _154
REMARK   60  A    between atoms: _154  and  _155
REMARK   61  A    between atoms: _160  and  _162
REMARK   62  A    between atoms: _162  and  _163
REMARK   63  A    between atoms: _162  and  _165
REMARK   64  A    between atoms: _165  and  _166
REMARK   65  A    between atoms: _166  and  _167
REMARK   66  A    between atoms: _170  and  _172
REMARK   67  A    between atoms: _172  and  _173
REMARK   68  A    between atoms: _172  and  _175
REMARK   69  A    between atoms: _175  and  _176
REMARK   70  A    between atoms: _181  and  _182
REMARK   71  A    between atoms: _184  and  _186
REMARK   72  A    between atoms: _186  and  _187
REMARK   73  A    between atoms: _186  and  _189
REMARK   74  A    between atoms: _189  and  _190
REMARK   75  A    between atoms: _190  and  _191
REMARK   76  A    between atoms: _191  and  _192
REMARK   77  A    between atoms: _192  and  _193
REMARK   78  A    between atoms: _197  and  _199
REMARK   79  A    between atoms: _199  and  _200
REMARK   80  A    between atoms: _203  and  _205
REMARK   81  A    between atoms: _205  and  _206
REMARK   82  A    between atoms: _210  and  _211
REMARK   83  A    between atoms: _216  and  _218
REMARK   84  A    between atoms: _218  and  _219
REMARK   85  A    between atoms: _221  and  _223
REMARK   86  A    between atoms: _223  and  _224
REMARK   87  A    between atoms: _223  and  _226
REMARK   88  A    between atoms: _226  and  _227
REMARK   89  A    between atoms: _232  and  _233
REMARK   90  A    between atoms: _235  and  _237
REMARK   91  A    between atoms: _237  and  _238
REMARK   92  A    between atoms: _237  and  _240
REMARK   93  A    between atoms: _240  and  _241
REMARK   94  A    between atoms: _246  and  _248
REMARK   95  A    between atoms: _248  and  _249
REMARK   96  A    between atoms: _248  and  _251
REMARK   97  A    between atoms: _251  and  _252
REMARK   98  A    between atoms: _252  and  _253
REMARK   99  A    between atoms: _255  and  _257
REMARK  100  A    between atoms: _257  and  _258
REMARK  101  A    between atoms: _261  and  _263
REMARK  102  A    between atoms: _263  and  _264
REMARK  103  A    between atoms: _263  and  _266
REMARK  104  A    between atoms: _266  and  _267
REMARK  105  A    between atoms: _267  and  _268
REMARK  106  A    between atoms: _268  and  _269
REMARK  107  A    between atoms: _269  and  _270
REMARK  108  A    between atoms: _274  and  _276
REMARK  109  A    between atoms: _276  and  _277
REMARK  110  A    between atoms: _276  and  _279
REMARK  111  A    between atoms: _279  and  _280
REMARK  112  A    between atoms: _283  and  _285
REMARK  113  A    between atoms: _285  and  _286
REMARK  114  A    between atoms: _285  and  _288
REMARK  115  A    between atoms: _288  and  _289
REMARK  116  A    between atoms: _289  and  _290
REMARK  117  A    between atoms: _290  and  _291
REMARK  118  A    between atoms: _300  and  _302
REMARK  119  A    between atoms: _302  and  _303
REMARK  120  A    between atoms: _302  and  _305
REMARK  121  A    between atoms: _305  and  _306
REMARK                            x       y       z     vdW  Elec       q    Type
REMARK                         _______ _______ _______ _____ _____    ______ ____
ROOT
ATOM      1  O   HOH     1      38.831  39.834  26.657  0.00  0.00    +0.000 OA
ENDROOT
TORSDOF 0
REMARK  Name = ../refined-set-2016/3ebo/3ebo_pocket.pdb
REMARK  121 active torsions:
REMARK  status: ('A' for Active; 'I' for Inactive)
REMARK    1  A    between atoms: _2  and  _3
REMARK    2  A    between atoms: _8  and  _10
REMARK    3  A    between atoms: _10  and  _11
REMARK    4  A    between atoms: _10  and  _13
REMARK    5  A    between atoms: _13  and  _14
REMARK    6  A    between atoms: _19  and  _21
REMARK    7  A    between atoms: _21  and  _22
REMARK    8  A    between atoms: _21  and  _24
REMARK    9  A    between atoms: _24  and  _25
REMARK   10  A    between atoms: _28  and  _30
REMARK   11  A    between atoms: _30  and  _31
REMARK   12  A    between atoms: _30  and  _33
REMARK   13  A    between atoms: _33  and  _34
REMARK   14  A    between atoms: _39  and  _41
REMARK   15  A    between atoms: _41  and  _42
REMARK   16  A    between atoms: _41  and  _44
REMARK   17  A    between atoms: _44  and  _45
REMARK   18  A    between atoms: _51  and  _53
REMARK   19  A    between atoms: _53  and  _54
REMARK   20  A    between atoms: _53  and  _56
REMARK   21  A    between atoms: _56  and  _57
REMARK   22  A    between atoms: _63  and  _65
REMARK   23  A    between atoms: _65  and  _66
REMARK   24  A    between atoms: _65  and  _68
REMARK   25  A    between atoms: _68  and  _69
REMARK   26  A    between atoms: _69  and  _70
REMARK   27  A    between atoms: _73  and  _75
REMARK   28  A    between atoms: _75  and  _76
REMARK   29  A    between atoms: _75  and  _78
REMARK   30  A    between atoms: _78  and  _79
REMARK   31  A    between atoms: _82  and  _84
REMARK   32  A    between atoms: _84  and  _85
REMARK   33  A    between atoms: _84  and  _87
REMARK   34  A    between atoms: _87  and  _88
REMARK   35  A    between atoms: _92  and  _93
REMARK   36  A    between atoms: _98  and  _100
REMARK   37  A    between atoms: _100  and  _101
REMARK   38  A    between atoms: _100  and  _103
REMARK   39  A    between atoms: _103  and  _104
REMARK   40  A    between atoms: _104  and  _105
REMARK   41  A    between atoms: _108  and  _110
REMARK   42  A    between atoms: _110  and  _111
REMARK   43  A    between atoms: _114  and  _116
REMARK   44  A    between atoms: _116  and  _117
REMARK   45  A    between atoms: _116  and  _119
REMARK   46  A    between atoms: _119  and  _120
REMARK   47  A    between atoms: _123  and  _125
REMARK   48  A    between atoms: _125  and  _126
REMARK   49  A    between atoms: _125  and  _128
REMARK   50  A    between atoms: _128  and  _129
REMARK   51  A    between atoms: _129  and  _130
REMARK   52  A    between atoms: _130  and  _131
REMARK   53  A    between atoms: _140  and  _142
REMARK   54  A    between atoms: _142  and  _143
REMARK   55  A    between atoms: _142  and  _145
REMARK   56  A    between atoms: _145  and  _146
REMARK   57  A    between atoms: _149  and  _151
REMARK   58  A    between atoms: _151  and  _152
REMARK   59  A    between atoms: _151  and  _154
REMARK   60  A    between atoms: _154  and  _155
REMARK   61  A    between atoms: _160  and  _162
REMARK   62  A    between atoms: _162  and  _163
REMARK   63  A    between atoms: _162  and  _165
REMARK   64  A    between atoms: _165  and  _166
REMARK   65  A    between atoms: _166  and  _167
REMARK   66  A    between atoms: _170  and  _172
REMARK   67  A    between atoms: _172  and  _173
REMARK   68  A    between atoms: _172  and  _175
REMARK   69  A    between atoms: _175  and  _176
REMARK   70  A    between atoms: _181  and  _182
REMARK   71  A    between atoms: _184  and  _186
REMARK   72  A    between atoms: _186  and  _187
REMARK   73  A    between atoms: _186  and  _189
REMARK   74  A    between atoms: _189  and  _190
REMARK   75  A    between atoms: _190  and  _191
REMARK   76  A    between atoms: _191  and  _192
REMARK   77  A    between atoms: _192  and  _193
REMARK   78  A    between atoms: _197  and  _199
REMARK   79  A    between atoms: _199  and  _200
REMARK   80  A    between atoms: _203  and  _205
REMARK   81  A    between atoms: _205  and  _206
REMARK   82  A    between atoms: _210  and  _211
REMARK   83  A    between atoms: _216  and  _218
REMARK   84  A    between atoms: _218  and  _219
REMARK   85  A    between atoms: _221  and  _223
REMARK   86  A    between atoms: _223  and  _224
REMARK   87  A    between atoms: _223  and  _226
REMARK   88  A    between atoms: _226  and  _227
REMARK   89  A    between atoms: _232  and  _233
REMARK   90  A    between atoms: _235  and  _237
REMARK   91  A    between atoms: _237  and  _238
REMARK   92  A    between atoms: _237  and  _240
REMARK   93  A    between atoms: _240  and  _241
REMARK   94  A    between atoms: _246  and  _248
REMARK   95  A    between atoms: _248  and  _249
REMARK   96  A    between atoms: _248  and  _251
REMARK   97  A    between atoms: _251  and  _252
REMARK   98  A    between atoms: _252  and  _253
REMARK   99  A    between atoms: _255  and  _257
REMARK  100  A    between atoms: _257  and  _258
REMARK  101  A    between atoms: _261  and  _263
REMARK  102  A    between atoms: _263  and  _264
REMARK  103  A    between atoms: _263  and  _266
REMARK  104  A    between atoms: _266  and  _267
REMARK  105  A    between atoms: _267  and  _268
REMARK  106  A    between atoms: _268  and  _269
REMARK  107  A    between atoms: _269  and  _270
REMARK  108  A    between atoms: _274  and  _276
REMARK  109  A    between atoms: _276  and  _277
REMARK  110  A    between atoms: _276  and  _279
REMARK  111  A    between atoms: _279  and  _280
REMARK  112  A    between atoms: _283  and  _285
REMARK  113  A    between atoms: _285  and  _286
REMARK  114  A    between atoms: _285  and  _288
REMARK  115  A    between atoms: _288  and  _289
REMARK  116  A    between atoms: _289  and  _290
REMARK  117  A    between atoms: _290  and  _291
REMARK  118  A    between atoms: _300  and  _302
REMARK  119  A    between atoms: _302  and  _303
REMARK  120  A    between atoms: _302  and  _305
REMARK  121  A    between atoms: _305  and  _306
REMARK                            x       y       z     vdW  Elec       q    Type
REMARK                         _______ _______ _______ _____ _____    ______ ____
ROOT
ATOM      1  O   HOH     1      37.423  41.459  28.856  0.00  0.00    +0.000 OA
ENDROOT
TORSDOF 0
REMARK  Name = ../refined-set-2016/3ebo/3ebo_pocket.pdb
REMARK  121 active torsions:
REMARK  status: ('A' for Active; 'I' for Inactive)
REMARK    1  A    between atoms: _2  and  _3
REMARK    2  A    between atoms: _8  and  _10
REMARK    3  A    between atoms: _10  and  _11
REMARK    4  A    between atoms: _10  and  _13
REMARK    5  A    between atoms: _13  and  _14
REMARK    6  A    between atoms: _19  and  _21
REMARK    7  A    between atoms: _21  and  _22
REMARK    8  A    between atoms: _21  and  _24
REMARK    9  A    between atoms: _24  and  _25
REMARK   10  A    between atoms: _28  and  _30
REMARK   11  A    between atoms: _30  and  _31
REMARK   12  A    between atoms: _30  and  _33
REMARK   13  A    between atoms: _33  and  _34
REMARK   14  A    between atoms: _39  and  _41
REMARK   15  A    between atoms: _41  and  _42
REMARK   16  A    between atoms: _41  and  _44
REMARK   17  A    between atoms: _44  and  _45
REMARK   18  A    between atoms: _51  and  _53
REMARK   19  A    between atoms: _53  and  _54
REMARK   20  A    between atoms: _53  and  _56
REMARK   21  A    between atoms: _56  and  _57
REMARK   22  A    between atoms: _63  and  _65
REMARK   23  A    between atoms: _65  and  _66
REMARK   24  A    between atoms: _65  and  _68
REMARK   25  A    between atoms: _68  and  _69
REMARK   26  A    between atoms: _69  and  _70
REMARK   27  A    between atoms: _73  and  _75
REMARK   28  A    between atoms: _75  and  _76
REMARK   29  A    between atoms: _75  and  _78
REMARK   30  A    between atoms: _78  and  _79
REMARK   31  A    between atoms: _82  and  _84
REMARK   32  A    between atoms: _84  and  _85
REMARK   33  A    between atoms: _84  and  _87
REMARK   34  A    between atoms: _87  and  _88
REMARK   35  A    between atoms: _92  and  _93
REMARK   36  A    between atoms: _98  and  _100
REMARK   37  A    between atoms: _100  and  _101
REMARK   38  A    between atoms: _100  and  _103
REMARK   39  A    between atoms: _103  and  _104
REMARK   40  A    between atoms: _104  and  _105
REMARK   41  A    between atoms: _108  and  _110
REMARK   42  A    between atoms: _110  and  _111
REMARK   43  A    between atoms: _114  and  _116
REMARK   44  A    between atoms: _116  and  _117
REMARK   45  A    between atoms: _116  and  _119
REMARK   46  A    between atoms: _119  and  _120
REMARK   47  A    between atoms: _123  and  _125
REMARK   48  A    between atoms: _125  and  _126
REMARK   49  A    between atoms: _125  and  _128
REMARK   50  A    between atoms: _128  and  _129
REMARK   51  A    between atoms: _129  and  _130
REMARK   52  A    between atoms: _130  and  _131
REMARK   53  A    between atoms: _140  and  _142
REMARK   54  A    between atoms: _142  and  _143
REMARK   55  A    between atoms: _142  and  _145
REMARK   56  A    between atoms: _145  and  _146
REMARK   57  A    between atoms: _149  and  _151
REMARK   58  A    between atoms: _151  and  _152
REMARK   59  A    between atoms: _151  and  _154
REMARK   60  A    between atoms: _154  and  _155
REMARK   61  A    between atoms: _160  and  _162
REMARK   62  A    between atoms: _162  and  _163
REMARK   63  A    between atoms: _162  and  _165
REMARK   64  A    between atoms: _165  and  _166
REMARK   65  A    between atoms: _166  and  _167
REMARK   66  A    between atoms: _170  and  _172
REMARK   67  A    between atoms: _172  and  _173
REMARK   68  A    between atoms: _172  and  _175
REMARK   69  A    between atoms: _175  and  _176
REMARK   70  A    between atoms: _181  and  _182
REMARK   71  A    between atoms: _184  and  _186
REMARK   72  A    between atoms: _186  and  _187
REMARK   73  A    between atoms: _186  and  _189
REMARK   74  A    between atoms: _189  and  _190
REMARK   75  A    between atoms: _190  and  _191
REMARK   76  A    between atoms: _191  and  _192
REMARK   77  A    between atoms: _192  and  _193
REMARK   78  A    between atoms: _197  and  _199
REMARK   79  A    between atoms: _199  and  _200
REMARK   80  A    between atoms: _203  and  _205
REMARK   81  A    between atoms: _205  and  _206
REMARK   82  A    between atoms: _210  and  _211
REMARK   83  A    between atoms: _216  and  _218
REMARK   84  A    between atoms: _218  and  _219
REMARK   85  A    between atoms: _221  and  _223
REMARK   86  A    between atoms: _223  and  _224
REMARK   87  A    between atoms: _223  and  _226
REMARK   88  A    between atoms: _226  and  _227
REMARK   89  A    between atoms: _232  and  _233
REMARK   90  A    between atoms: _235  and  _237
REMARK   91  A    between atoms: _237  and  _238
REMARK   92  A    between atoms: _237  and  _240
REMARK   93  A    between atoms: _240  and  _241
REMARK   94  A    between atoms: _246  and  _248
REMARK   95  A    between atoms: _248  and  _249
REMARK   96  A    between atoms: _248  and  _251
REMARK   97  A    between atoms: _251  and  _252
REMARK   98  A    between atoms: _252  and  _253
REMARK   99  A    between atoms: _255  and  _257
REMARK  100  A    between atoms: _257  and  _258
REMARK  101  A    between atoms: _261  and  _263
REMARK  102  A    between atoms: _263  and  _264
REMARK  103  A    between atoms: _263  and  _266
REMARK  104  A    between atoms: _266  and  _267
REMARK  105  A    between atoms: _267  and  _268
REMARK  106  A    between atoms: _268  and  _269
REMARK  107  A    between atoms: _269  and  _270
REMARK  108  A    between atoms: _274  and  _276
REMARK  109  A    between atoms: _276  and  _277
REMARK  110  A    between atoms: _276  and  _279
REMARK  111  A    between atoms: _279  and  _280
REMARK  112  A    between atoms: _283  and  _285
REMARK  113  A    between atoms: _285  and  _286
REMARK  114  A    between atoms: _285  and  _288
REMARK  115  A    between atoms: _288  and  _289
REMARK  116  A    between atoms: _289  and  _290
REMARK  117  A    between atoms: _290  and  _291
REMARK  118  A    between atoms: _300  and  _302
REMARK  119  A    between atoms: _302  and  _303
REMARK  120  A    between atoms: _302  and  _305
REMARK  121  A    between atoms: _305  and  _306
REMARK                            x       y       z     vdW  Elec       q    Type
REMARK                         _______ _______ _______ _____ _____    ______ ____
ROOT
ATOM      1  O   HOH     1      38.164  41.533  31.715  0.00  0.00    +0.000 OA
ENDROOT
TORSDOF 0
REMARK  Name = ../refined-set-2016/3ebo/3ebo_pocket.pdb
REMARK  121 active torsions:
REMARK  status: ('A' for Active; 'I' for Inactive)
REMARK    1  A    between atoms: _2  and  _3
REMARK    2  A    between atoms: _8  and  _10
REMARK    3  A    between atoms: _10  and  _11
REMARK    4  A    between atoms: _10  and  _13
REMARK    5  A    between atoms: _13  and  _14
REMARK    6  A    between atoms: _19  and  _21
REMARK    7  A    between atoms: _21  and  _22
REMARK    8  A    between atoms: _21  and  _24
REMARK    9  A    between atoms: _24  and  _25
REMARK   10  A    between atoms: _28  and  _30
REMARK   11  A    between atoms: _30  and  _31
REMARK   12  A    between atoms: _30  and  _33
REMARK   13  A    between atoms: _33  and  _34
REMARK   14  A    between atoms: _39  and  _41
REMARK   15  A    between atoms: _41  and  _42
REMARK   16  A    between atoms: _41  and  _44
REMARK   17  A    between atoms: _44  and  _45
REMARK   18  A    between atoms: _51  and  _53
REMARK   19  A    between atoms: _53  and  _54
REMARK   20  A    between atoms: _53  and  _56
REMARK   21  A    between atoms: _56  and  _57
REMARK   22  A    between atoms: _63  and  _65
REMARK   23  A    between atoms: _65  and  _66
REMARK   24  A    between atoms: _65  and  _68
REMARK   25  A    between atoms: _68  and  _69
REMARK   26  A    between atoms: _69  and  _70
REMARK   27  A    between atoms: _73  and  _75
REMARK   28  A    between atoms: _75  and  _76
REMARK   29  A    between atoms: _75  and  _78
REMARK   30  A    between atoms: _78  and  _79
REMARK   31  A    between atoms: _82  and  _84
REMARK   32  A    between atoms: _84  and  _85
REMARK   33  A    between atoms: _84  and  _87
REMARK   34  A    between atoms: _87  and  _88
REMARK   35  A    between atoms: _92  and  _93
REMARK   36  A    between atoms: _98  and  _100
REMARK   37  A    between atoms: _100  and  _101
REMARK   38  A    between atoms: _100  and  _103
REMARK   39  A    between atoms: _103  and  _104
REMARK   40  A    between atoms: _104  and  _105
REMARK   41  A    between atoms: _108  and  _110
REMARK   42  A    between atoms: _110  and  _111
REMARK   43  A    between atoms: _114  and  _116
REMARK   44  A    between atoms: _116  and  _117
REMARK   45  A    between atoms: _116  and  _119
REMARK   46  A    between atoms: _119  and  _120
REMARK   47  A    between atoms: _123  and  _125
REMARK   48  A    between atoms: _125  and  _126
REMARK   49  A    between atoms: _125  and  _128
REMARK   50  A    between atoms: _128  and  _129
REMARK   51  A    between atoms: _129  and  _130
REMARK   52  A    between atoms: _130  and  _131
REMARK   53  A    between atoms: _140  and  _142
REMARK   54  A    between atoms: _142  and  _143
REMARK   55  A    between atoms: _142  and  _145
REMARK   56  A    between atoms: _145  and  _146
REMARK   57  A    between atoms: _149  and  _151
REMARK   58  A    between atoms: _151  and  _152
REMARK   59  A    between atoms: _151  and  _154
REMARK   60  A    between atoms: _154  and  _155
REMARK   61  A    between atoms: _160  and  _162
REMARK   62  A    between atoms: _162  and  _163
REMARK   63  A    between atoms: _162  and  _165
REMARK   64  A    between atoms: _165  and  _166
REMARK   65  A    between atoms: _166  and  _167
REMARK   66  A    between atoms: _170  and  _172
REMARK   67  A    between atoms: _172  and  _173
REMARK   68  A    between atoms: _172  and  _175
REMARK   69  A    between atoms: _175  and  _176
REMARK   70  A    between atoms: _181  and  _182
REMARK   71  A    between atoms: _184  and  _186
REMARK   72  A    between atoms: _186  and  _187
REMARK   73  A    between atoms: _186  and  _189
REMARK   74  A    between atoms: _189  and  _190
REMARK   75  A    between atoms: _190  and  _191
REMARK   76  A    between atoms: _191  and  _192
REMARK   77  A    between atoms: _192  and  _193
REMARK   78  A    between atoms: _197  and  _199
REMARK   79  A    between atoms: _199  and  _200
REMARK   80  A    between atoms: _203  and  _205
REMARK   81  A    between atoms: _205  and  _206
REMARK   82  A    between atoms: _210  and  _211
REMARK   83  A    between atoms: _216  and  _218
REMARK   84  A    between atoms: _218  and  _219
REMARK   85  A    between atoms: _221  and  _223
REMARK   86  A    between atoms: _223  and  _224
REMARK   87  A    between atoms: _223  and  _226
REMARK   88  A    between atoms: _226  and  _227
REMARK   89  A    between atoms: _232  and  _233
REMARK   90  A    between atoms: _235  and  _237
REMARK   91  A    between atoms: _237  and  _238
REMARK   92  A    between atoms: _237  and  _240
REMARK   93  A    between atoms: _240  and  _241
REMARK   94  A    between atoms: _246  and  _248
REMARK   95  A    between atoms: _248  and  _249
REMARK   96  A    between atoms: _248  and  _251
REMARK   97  A    between atoms: _251  and  _252
REMARK   98  A    between atoms: _252  and  _253
REMARK   99  A    between atoms: _255  and  _257
REMARK  100  A    between atoms: _257  and  _258
REMARK  101  A    between atoms: _261  and  _263
REMARK  102  A    between atoms: _263  and  _264
REMARK  103  A    between atoms: _263  and  _266
REMARK  104  A    between atoms: _266  and  _267
REMARK  105  A    between atoms: _267  and  _268
REMARK  106  A    between atoms: _268  and  _269
REMARK  107  A    between atoms: _269  and  _270
REMARK  108  A    between atoms: _274  and  _276
REMARK  109  A    between atoms: _276  and  _277
REMARK  110  A    between atoms: _276  and  _279
REMARK  111  A    between atoms: _279  and  _280
REMARK  112  A    between atoms: _283  and  _285
REMARK  113  A    between atoms: _285  and  _286
REMARK  114  A    between atoms: _285  and  _288
REMARK  115  A    between atoms: _288  and  _289
REMARK  116  A    between atoms: _289  and  _290
REMARK  117  A    between atoms: _290  and  _291
REMARK  118  A    between atoms: _300  and  _302
REMARK  119  A    between atoms: _302  and  _303
REMARK  120  A    between atoms: _302  and  _305
REMARK  121  A    between atoms: _305  and  _306
REMARK                            x       y       z     vdW  Elec       q    Type
REMARK                         _______ _______ _______ _____ _____    ______ ____
ROOT
ATOM      1  O   HOH     1      35.262  36.156  37.286  0.00  0.00    +0.000 OA
ENDROOT
TORSDOF 0
REMARK  Name = ../refined-set-2016/3ebo/3ebo_pocket.pdb
REMARK  121 active torsions:
REMARK  status: ('A' for Active; 'I' for Inactive)
REMARK    1  A    between atoms: _2  and  _3
REMARK    2  A    between atoms: _8  and  _10
REMARK    3  A    between atoms: _10  and  _11
REMARK    4  A    between atoms: _10  and  _13
REMARK    5  A    between atoms: _13  and  _14
REMARK    6  A    between atoms: _19  and  _21
REMARK    7  A    between atoms: _21  and  _22
REMARK    8  A    between atoms: _21  and  _24
REMARK    9  A    between atoms: _24  and  _25
REMARK   10  A    between atoms: _28  and  _30
REMARK   11  A    between atoms: _30  and  _31
REMARK   12  A    between atoms: _30  and  _33
REMARK   13  A    between atoms: _33  and  _34
REMARK   14  A    between atoms: _39  and  _41
REMARK   15  A    between atoms: _41  and  _42
REMARK   16  A    between atoms: _41  and  _44
REMARK   17  A    between atoms: _44  and  _45
REMARK   18  A    between atoms: _51  and  _53
REMARK   19  A    between atoms: _53  and  _54
REMARK   20  A    between atoms: _53  and  _56
REMARK   21  A    between atoms: _56  and  _57
REMARK   22  A    between atoms: _63  and  _65
REMARK   23  A    between atoms: _65  and  _66
REMARK   24  A    between atoms: _65  and  _68
REMARK   25  A    between atoms: _68  and  _69
REMARK   26  A    between atoms: _69  and  _70
REMARK   27  A    between atoms: _73  and  _75
REMARK   28  A    between atoms: _75  and  _76
REMARK   29  A    between atoms: _75  and  _78
REMARK   30  A    between atoms: _78  and  _79
REMARK   31  A    between atoms: _82  and  _84
REMARK   32  A    between atoms: _84  and  _85
REMARK   33  A    between atoms: _84  and  _87
REMARK   34  A    between atoms: _87  and  _88
REMARK   35  A    between atoms: _92  and  _93
REMARK   36  A    between atoms: _98  and  _100
REMARK   37  A    between atoms: _100  and  _101
REMARK   38  A    between atoms: _100  and  _103
REMARK   39  A    between atoms: _103  and  _104
REMARK   40  A    between atoms: _104  and  _105
REMARK   41  A    between atoms: _108  and  _110
REMARK   42  A    between atoms: _110  and  _111
REMARK   43  A    between atoms: _114  and  _116
REMARK   44  A    between atoms: _116  and  _117
REMARK   45  A    between atoms: _116  and  _119
REMARK   46  A    between atoms: _119  and  _120
REMARK   47  A    between atoms: _123  and  _125
REMARK   48  A    between atoms: _125  and  _126
REMARK   49  A    between atoms: _125  and  _128
REMARK   50  A    between atoms: _128  and  _129
REMARK   51  A    between atoms: _129  and  _130
REMARK   52  A    between atoms: _130  and  _131
REMARK   53  A    between atoms: _140  and  _142
REMARK   54  A    between atoms: _142  and  _143
REMARK   55  A    between atoms: _142  and  _145
REMARK   56  A    between atoms: _145  and  _146
REMARK   57  A    between atoms: _149  and  _151
REMARK   58  A    between atoms: _151  and  _152
REMARK   59  A    between atoms: _151  and  _154
REMARK   60  A    between atoms: _154  and  _155
REMARK   61  A    between atoms: _160  and  _162
REMARK   62  A    between atoms: _162  and  _163
REMARK   63  A    between atoms: _162  and  _165
REMARK   64  A    between atoms: _165  and  _166
REMARK   65  A    between atoms: _166  and  _167
REMARK   66  A    between atoms: _170  and  _172
REMARK   67  A    between atoms: _172  and  _173
REMARK   68  A    between atoms: _172  and  _175
REMARK   69  A    between atoms: _175  and  _176
REMARK   70  A    between atoms: _181  and  _182
REMARK   71  A    between atoms: _184  and  _186
REMARK   72  A    between atoms: _186  and  _187
REMARK   73  A    between atoms: _186  and  _189
REMARK   74  A    between atoms: _189  and  _190
REMARK   75  A    between atoms: _190  and  _191
REMARK   76  A    between atoms: _191  and  _192
REMARK   77  A    between atoms: _192  and  _193
REMARK   78  A    between atoms: _197  and  _199
REMARK   79  A    between atoms: _199  and  _200
REMARK   80  A    between atoms: _203  and  _205
REMARK   81  A    between atoms: _205  and  _206
REMARK   82  A    between atoms: _210  and  _211
REMARK   83  A    between atoms: _216  and  _218
REMARK   84  A    between atoms: _218  and  _219
REMARK   85  A    between atoms: _221  and  _223
REMARK   86  A    between atoms: _223  and  _224
REMARK   87  A    between atoms: _223  and  _226
REMARK   88  A    between atoms: _226  and  _227
REMARK   89  A    between atoms: _232  and  _233
REMARK   90  A    between atoms: _235  and  _237
REMARK   91  A    between atoms: _237  and  _238
REMARK   92  A    between atoms: _237  and  _240
REMARK   93  A    between atoms: _240  and  _241
REMARK   94  A    between atoms: _246  and  _248
REMARK   95  A    between atoms: _248  and  _249
REMARK   96  A    between atoms: _248  and  _251
REMARK   97  A    between atoms: _251  and  _252
REMARK   98  A    between atoms: _252  and  _253
REMARK   99  A    between atoms: _255  and  _257
REMARK  100  A    between atoms: _257  and  _258
REMARK  101  A    between atoms: _261  and  _263
REMARK  102  A    between atoms: _263  and  _264
REMARK  103  A    between atoms: _263  and  _266
REMARK  104  A    between atoms: _266  and  _267
REMARK  105  A    between atoms: _267  and  _268
REMARK  106  A    between atoms: _268  and  _269
REMARK  107  A    between atoms: _269  and  _270
REMARK  108  A    between atoms: _274  and  _276
REMARK  109  A    between atoms: _276  and  _277
REMARK  110  A    between atoms: _276  and  _279
REMARK  111  A    between atoms: _279  and  _280
REMARK  112  A    between atoms: _283  and  _285
REMARK  113  A    between atoms: _285  and  _286
REMARK  114  A    between atoms: _285  and  _288
REMARK  115  A    between atoms: _288  and  _289
REMARK  116  A    between atoms: _289  and  _290
REMARK  117  A    between atoms: _290  and  _291
REMARK  118  A    between atoms: _300  and  _302
REMARK  119  A    between atoms: _302  and  _303
REMARK  120  A    between atoms: _302  and  _305
REMARK  121  A    between atoms: _305  and  _306
REMARK                            x       y       z     vdW  Elec       q    Type
REMARK                         _______ _______ _______ _____ _____    ______ ____
ROOT
ATOM      1  O   HOH     1      36.160  34.858  40.120  0.00  0.00    +0.000 OA
ENDROOT
TORSDOF 0
REMARK  Name = ../refined-set-2016/3ebo/3ebo_pocket.pdb
REMARK  121 active torsions:
REMARK  status: ('A' for Active; 'I' for Inactive)
REMARK    1  A    between atoms: _2  and  _3
REMARK    2  A    between atoms: _8  and  _10
REMARK    3  A    between atoms: _10  and  _11
REMARK    4  A    between atoms: _10  and  _13
REMARK    5  A    between atoms: _13  and  _14
REMARK    6  A    between atoms: _19  and  _21
REMARK    7  A    between atoms: _21  and  _22
REMARK    8  A    between atoms: _21  and  _24
REMARK    9  A    between atoms: _24  and  _25
REMARK   10  A    between atoms: _28  and  _30
REMARK   11  A    between atoms: _30  and  _31
REMARK   12  A    between atoms: _30  and  _33
REMARK   13  A    between atoms: _33  and  _34
REMARK   14  A    between atoms: _39  and  _41
REMARK   15  A    between atoms: _41  and  _42
REMARK   16  A    between atoms: _41  and  _44
REMARK   17  A    between atoms: _44  and  _45
REMARK   18  A    between atoms: _51  and  _53
REMARK   19  A    between atoms: _53  and  _54
REMARK   20  A    between atoms: _53  and  _56
REMARK   21  A    between atoms: _56  and  _57
REMARK   22  A    between atoms: _63  and  _65
REMARK   23  A    between atoms: _65  and  _66
REMARK   24  A    between atoms: _65  and  _68
REMARK   25  A    between atoms: _68  and  _69
REMARK   26  A    between atoms: _69  and  _70
REMARK   27  A    between atoms: _73  and  _75
REMARK   28  A    between atoms: _75  and  _76
REMARK   29  A    between atoms: _75  and  _78
REMARK   30  A    between atoms: _78  and  _79
REMARK   31  A    between atoms: _82  and  _84
REMARK   32  A    between atoms: _84  and  _85
REMARK   33  A    between atoms: _84  and  _87
REMARK   34  A    between atoms: _87  and  _88
REMARK   35  A    between atoms: _92  and  _93
REMARK   36  A    between atoms: _98  and  _100
REMARK   37  A    between atoms: _100  and  _101
REMARK   38  A    between atoms: _100  and  _103
REMARK   39  A    between atoms: _103  and  _104
REMARK   40  A    between atoms: _104  and  _105
REMARK   41  A    between atoms: _108  and  _110
REMARK   42  A    between atoms: _110  and  _111
REMARK   43  A    between atoms: _114  and  _116
REMARK   44  A    between atoms: _116  and  _117
REMARK   45  A    between atoms: _116  and  _119
REMARK   46  A    between atoms: _119  and  _120
REMARK   47  A    between atoms: _123  and  _125
REMARK   48  A    between atoms: _125  and  _126
REMARK   49  A    between atoms: _125  and  _128
REMARK   50  A    between atoms: _128  and  _129
REMARK   51  A    between atoms: _129  and  _130
REMARK   52  A    between atoms: _130  and  _131
REMARK   53  A    between atoms: _140  and  _142
REMARK   54  A    between atoms: _142  and  _143
REMARK   55  A    between atoms: _142  and  _145
REMARK   56  A    between atoms: _145  and  _146
REMARK   57  A    between atoms: _149  and  _151
REMARK   58  A    between atoms: _151  and  _152
REMARK   59  A    between atoms: _151  and  _154
REMARK   60  A    between atoms: _154  and  _155
REMARK   61  A    between atoms: _160  and  _162
REMARK   62  A    between atoms: _162  and  _163
REMARK   63  A    between atoms: _162  and  _165
REMARK   64  A    between atoms: _165  and  _166
REMARK   65  A    between atoms: _166  and  _167
REMARK   66  A    between atoms: _170  and  _172
REMARK   67  A    between atoms: _172  and  _173
REMARK   68  A    between atoms: _172  and  _175
REMARK   69  A    between atoms: _175  and  _176
REMARK   70  A    between atoms: _181  and  _182
REMARK   71  A    between atoms: _184  and  _186
REMARK   72  A    between atoms: _186  and  _187
REMARK   73  A    between atoms: _186  and  _189
REMARK   74  A    between atoms: _189  and  _190
REMARK   75  A    between atoms: _190  and  _191
REMARK   76  A    between atoms: _191  and  _192
REMARK   77  A    between atoms: _192  and  _193
REMARK   78  A    between atoms: _197  and  _199
REMARK   79  A    between atoms: _199  and  _200
REMARK   80  A    between atoms: _203  and  _205
REMARK   81  A    between atoms: _205  and  _206
REMARK   82  A    between atoms: _210  and  _211
REMARK   83  A    between atoms: _216  and  _218
REMARK   84  A    between atoms: _218  and  _219
REMARK   85  A    between atoms: _221  and  _223
REMARK   86  A    between atoms: _223  and  _224
REMARK   87  A    between atoms: _223  and  _226
REMARK   88  A    between atoms: _226  and  _227
REMARK   89  A    between atoms: _232  and  _233
REMARK   90  A    between atoms: _235  and  _237
REMARK   91  A    between atoms: _237  and  _238
REMARK   92  A    between atoms: _237  and  _240
REMARK   93  A    between atoms: _240  and  _241
REMARK   94  A    between atoms: _246  and  _248
REMARK   95  A    between atoms: _248  and  _249
REMARK   96  A    between atoms: _248  and  _251
REMARK   97  A    between atoms: _251  and  _252
REMARK   98  A    between atoms: _252  and  _253
REMARK   99  A    between atoms: _255  and  _257
REMARK  100  A    between atoms: _257  and  _258
REMARK  101  A    between atoms: _261  and  _263
REMARK  102  A    between atoms: _263  and  _264
REMARK  103  A    between atoms: _263  and  _266
REMARK  104  A    between atoms: _266  and  _267
REMARK  105  A    between atoms: _267  and  _268
REMARK  106  A    between atoms: _268  and  _269
REMARK  107  A    between atoms: _269  and  _270
REMARK  108  A    between atoms: _274  and  _276
REMARK  109  A    between atoms: _276  and  _277
REMARK  110  A    between atoms: _276  and  _279
REMARK  111  A    between atoms: _279  and  _280
REMARK  112  A    between atoms: _283  and  _285
REMARK  113  A    between atoms: _285  and  _286
REMARK  114  A    between atoms: _285  and  _288
REMARK  115  A    between atoms: _288  and  _289
REMARK  116  A    between atoms: _289  and  _290
REMARK  117  A    between atoms: _290  and  _291
REMARK  118  A    between atoms: _300  and  _302
REMARK  119  A    between atoms: _302  and  _303
REMARK  120  A    between atoms: _302  and  _305
REMARK  121  A    between atoms: _305  and  _306
REMARK                            x       y       z     vdW  Elec       q    Type
REMARK                         _______ _______ _______ _____ _____    ______ ____
ROOT
ATOM      1  O   HOH     1      44.016  32.503  32.512  0.00  0.00    +0.000 OA
ENDROOT
TORSDOF 0
REMARK  Name = ../refined-set-2016/3ebo/3ebo_pocket.pdb
REMARK  121 active torsions:
REMARK  status: ('A' for Active; 'I' for Inactive)
REMARK    1  A    between atoms: _2  and  _3
REMARK    2  A    between atoms: _8  and  _10
REMARK    3  A    between atoms: _10  and  _11
REMARK    4  A    between atoms: _10  and  _13
REMARK    5  A    between atoms: _13  and  _14
REMARK    6  A    between atoms: _19  and  _21
REMARK    7  A    between atoms: _21  and  _22
REMARK    8  A    between atoms: _21  and  _24
REMARK    9  A    between atoms: _24  and  _25
REMARK   10  A    between atoms: _28  and  _30
REMARK   11  A    between atoms: _30  and  _31
REMARK   12  A    between atoms: _30  and  _33
REMARK   13  A    between atoms: _33  and  _34
REMARK   14  A    between atoms: _39  and  _41
REMARK   15  A    between atoms: _41  and  _42
REMARK   16  A    between atoms: _41  and  _44
REMARK   17  A    between atoms: _44  and  _45
REMARK   18  A    between atoms: _51  and  _53
REMARK   19  A    between atoms: _53  and  _54
REMARK   20  A    between atoms: _53  and  _56
REMARK   21  A    between atoms: _56  and  _57
REMARK   22  A    between atoms: _63  and  _65
REMARK   23  A    between atoms: _65  and  _66
REMARK   24  A    between atoms: _65  and  _68
REMARK   25  A    between atoms: _68  and  _69
REMARK   26  A    between atoms: _69  and  _70
REMARK   27  A    between atoms: _73  and  _75
REMARK   28  A    between atoms: _75  and  _76
REMARK   29  A    between atoms: _75  and  _78
REMARK   30  A    between atoms: _78  and  _79
REMARK   31  A    between atoms: _82  and  _84
REMARK   32  A    between atoms: _84  and  _85
REMARK   33  A    between atoms: _84  and  _87
REMARK   34  A    between atoms: _87  and  _88
REMARK   35  A    between atoms: _92  and  _93
REMARK   36  A    between atoms: _98  and  _100
REMARK   37  A    between atoms: _100  and  _101
REMARK   38  A    between atoms: _100  and  _103
REMARK   39  A    between atoms: _103  and  _104
REMARK   40  A    between atoms: _104  and  _105
REMARK   41  A    between atoms: _108  and  _110
REMARK   42  A    between atoms: _110  and  _111
REMARK   43  A    between atoms: _114  and  _116
REMARK   44  A    between atoms: _116  and  _117
REMARK   45  A    between atoms: _116  and  _119
REMARK   46  A    between atoms: _119  and  _120
REMARK   47  A    between atoms: _123  and  _125
REMARK   48  A    between atoms: _125  and  _126
REMARK   49  A    between atoms: _125  and  _128
REMARK   50  A    between atoms: _128  and  _129
REMARK   51  A    between atoms: _129  and  _130
REMARK   52  A    between atoms: _130  and  _131
REMARK   53  A    between atoms: _140  and  _142
REMARK   54  A    between atoms: _142  and  _143
REMARK   55  A    between atoms: _142  and  _145
REMARK   56  A    between atoms: _145  and  _146
REMARK   57  A    between atoms: _149  and  _151
REMARK   58  A    between atoms: _151  and  _152
REMARK   59  A    between atoms: _151  and  _154
REMARK   60  A    between atoms: _154  and  _155
REMARK   61  A    between atoms: _160  and  _162
REMARK   62  A    between atoms: _162  and  _163
REMARK   63  A    between atoms: _162  and  _165
REMARK   64  A    between atoms: _165  and  _166
REMARK   65  A    between atoms: _166  and  _167
REMARK   66  A    between atoms: _170  and  _172
REMARK   67  A    between atoms: _172  and  _173
REMARK   68  A    between atoms: _172  and  _175
REMARK   69  A    between atoms: _175  and  _176
REMARK   70  A    between atoms: _181  and  _182
REMARK   71  A    between atoms: _184  and  _186
REMARK   72  A    between atoms: _186  and  _187
REMARK   73  A    between atoms: _186  and  _189
REMARK   74  A    between atoms: _189  and  _190
REMARK   75  A    between atoms: _190  and  _191
REMARK   76  A    between atoms: _191  and  _192
REMARK   77  A    between atoms: _192  and  _193
REMARK   78  A    between atoms: _197  and  _199
REMARK   79  A    between atoms: _199  and  _200
REMARK   80  A    between atoms: _203  and  _205
REMARK   81  A    between atoms: _205  and  _206
REMARK   82  A    between atoms: _210  and  _211
REMARK   83  A    between atoms: _216  and  _218
REMARK   84  A    between atoms: _218  and  _219
REMARK   85  A    between atoms: _221  and  _223
REMARK   86  A    between atoms: _223  and  _224
REMARK   87  A    between atoms: _223  and  _226
REMARK   88  A    between atoms: _226  and  _227
REMARK   89  A    between atoms: _232  and  _233
REMARK   90  A    between atoms: _235  and  _237
REMARK   91  A    between atoms: _237  and  _238
REMARK   92  A    between atoms: _237  and  _240
REMARK   93  A    between atoms: _240  and  _241
REMARK   94  A    between atoms: _246  and  _248
REMARK   95  A    between atoms: _248  and  _249
REMARK   96  A    between atoms: _248  and  _251
REMARK   97  A    between atoms: _251  and  _252
REMARK   98  A    between atoms: _252  and  _253
REMARK   99  A    between atoms: _255  and  _257
REMARK  100  A    between atoms: _257  and  _258
REMARK  101  A    between atoms: _261  and  _263
REMARK  102  A    between atoms: _263  and  _264
REMARK  103  A    between atoms: _263  and  _266
REMARK  104  A    between atoms: _266  and  _267
REMARK  105  A    between atoms: _267  and  _268
REMARK  106  A    between atoms: _268  and  _269
REMARK  107  A    between atoms: _269  and  _270
REMARK  108  A    between atoms: _274  and  _276
REMARK  109  A    between atoms: _276  and  _277
REMARK  110  A    between atoms: _276  and  _279
REMARK  111  A    between atoms: _279  and  _280
REMARK  112  A    between atoms: _283  and  _285
REMARK  113  A    between atoms: _285  and  _286
REMARK  114  A    between atoms: _285  and  _288
REMARK  115  A    between atoms: _288  and  _289
REMARK  116  A    between atoms: _289  and  _290
REMARK  117  A    between atoms: _290  and  _291
REMARK  118  A    between atoms: _300  and  _302
REMARK  119  A    between atoms: _302  and  _303
REMARK  120  A    between atoms: _302  and  _305
REMARK  121  A    between atoms: _305  and  _306
REMARK                            x       y       z     vdW  Elec       q    Type
REMARK                         _______ _______ _______ _____ _____    ______ ____
ROOT
ATOM      1  O   HOH     1      34.001  32.683  31.681  0.00  0.00    +0.000 OA
ENDROOT
TORSDOF 0
REMARK  Name = ../refined-set-2016/3ebo/3ebo_pocket.pdb
REMARK  121 active torsions:
REMARK  status: ('A' for Active; 'I' for Inactive)
REMARK    1  A    between atoms: _2  and  _3
REMARK    2  A    between atoms: _8  and  _10
REMARK    3  A    between atoms: _10  and  _11
REMARK    4  A    between atoms: _10  and  _13
REMARK    5  A    between atoms: _13  and  _14
REMARK    6  A    between atoms: _19  and  _21
REMARK    7  A    between atoms: _21  and  _22
REMARK    8  A    between atoms: _21  and  _24
REMARK    9  A    between atoms: _24  and  _25
REMARK   10  A    between atoms: _28  and  _30
REMARK   11  A    between atoms: _30  and  _31
REMARK   12  A    between atoms: _30  and  _33
REMARK   13  A    between atoms: _33  and  _34
REMARK   14  A    between atoms: _39  and  _41
REMARK   15  A    between atoms: _41  and  _42
REMARK   16  A    between atoms: _41  and  _44
REMARK   17  A    between atoms: _44  and  _45
REMARK   18  A    between atoms: _51  and  _53
REMARK   19  A    between atoms: _53  and  _54
REMARK   20  A    between atoms: _53  and  _56
REMARK   21  A    between atoms: _56  and  _57
REMARK   22  A    between atoms: _63  and  _65
REMARK   23  A    between atoms: _65  and  _66
REMARK   24  A    between atoms: _65  and  _68
REMARK   25  A    between atoms: _68  and  _69
REMARK   26  A    between atoms: _69  and  _70
REMARK   27  A    between atoms: _73  and  _75
REMARK   28  A    between atoms: _75  and  _76
REMARK   29  A    between atoms: _75  and  _78
REMARK   30  A    between atoms: _78  and  _79
REMARK   31  A    between atoms: _82  and  _84
REMARK   32  A    between atoms: _84  and  _85
REMARK   33  A    between atoms: _84  and  _87
REMARK   34  A    between atoms: _87  and  _88
REMARK   35  A    between atoms: _92  and  _93
REMARK   36  A    between atoms: _98  and  _100
REMARK   37  A    between atoms: _100  and  _101
REMARK   38  A    between atoms: _100  and  _103
REMARK   39  A    between atoms: _103  and  _104
REMARK   40  A    between atoms: _104  and  _105
REMARK   41  A    between atoms: _108  and  _110
REMARK   42  A    between atoms: _110  and  _111
REMARK   43  A    between atoms: _114  and  _116
REMARK   44  A    between atoms: _116  and  _117
REMARK   45  A    between atoms: _116  and  _119
REMARK   46  A    between atoms: _119  and  _120
REMARK   47  A    between atoms: _123  and  _125
REMARK   48  A    between atoms: _125  and  _126
REMARK   49  A    between atoms: _125  and  _128
REMARK   50  A    between atoms: _128  and  _129
REMARK   51  A    between atoms: _129  and  _130
REMARK   52  A    between atoms: _130  and  _131
REMARK   53  A    between atoms: _140  and  _142
REMARK   54  A    between atoms: _142  and  _143
REMARK   55  A    between atoms: _142  and  _145
REMARK   56  A    between atoms: _145  and  _146
REMARK   57  A    between atoms: _149  and  _151
REMARK   58  A    between atoms: _151  and  _152
REMARK   59  A    between atoms: _151  and  _154
REMARK   60  A    between atoms: _154  and  _155
REMARK   61  A    between atoms: _160  and  _162
REMARK   62  A    between atoms: _162  and  _163
REMARK   63  A    between atoms: _162  and  _165
REMARK   64  A    between atoms: _165  and  _166
REMARK   65  A    between atoms: _166  and  _167
REMARK   66  A    between atoms: _170  and  _172
REMARK   67  A    between atoms: _172  and  _173
REMARK   68  A    between atoms: _172  and  _175
REMARK   69  A    between atoms: _175  and  _176
REMARK   70  A    between atoms: _181  and  _182
REMARK   71  A    between atoms: _184  and  _186
REMARK   72  A    between atoms: _186  and  _187
REMARK   73  A    between atoms: _186  and  _189
REMARK   74  A    between atoms: _189  and  _190
REMARK   75  A    between atoms: _190  and  _191
REMARK   76  A    between atoms: _191  and  _192
REMARK   77  A    between atoms: _192  and  _193
REMARK   78  A    between atoms: _197  and  _199
REMARK   79  A    between atoms: _199  and  _200
REMARK   80  A    between atoms: _203  and  _205
REMARK   81  A    between atoms: _205  and  _206
REMARK   82  A    between atoms: _210  and  _211
REMARK   83  A    between atoms: _216  and  _218
REMARK   84  A    between atoms: _218  and  _219
REMARK   85  A    between atoms: _221  and  _223
REMARK   86  A    between atoms: _223  and  _224
REMARK   87  A    between atoms: _223  and  _226
REMARK   88  A    between atoms: _226  and  _227
REMARK   89  A    between atoms: _232  and  _233
REMARK   90  A    between atoms: _235  and  _237
REMARK   91  A    between atoms: _237  and  _238
REMARK   92  A    between atoms: _237  and  _240
REMARK   93  A    between atoms: _240  and  _241
REMARK   94  A    between atoms: _246  and  _248
REMARK   95  A    between atoms: _248  and  _249
REMARK   96  A    between atoms: _248  and  _251
REMARK   97  A    between atoms: _251  and  _252
REMARK   98  A    between atoms: _252  and  _253
REMARK   99  A    between atoms: _255  and  _257
REMARK  100  A    between atoms: _257  and  _258
REMARK  101  A    between atoms: _261  and  _263
REMARK  102  A    between atoms: _263  and  _264
REMARK  103  A    between atoms: _263  and  _266
REMARK  104  A    between atoms: _266  and  _267
REMARK  105  A    between atoms: _267  and  _268
REMARK  106  A    between atoms: _268  and  _269
REMARK  107  A    between atoms: _269  and  _270
REMARK  108  A    between atoms: _274  and  _276
REMARK  109  A    between atoms: _276  and  _277
REMARK  110  A    between atoms: _276  and  _279
REMARK  111  A    between atoms: _279  and  _280
REMARK  112  A    between atoms: _283  and  _285
REMARK  113  A    between atoms: _285  and  _286
REMARK  114  A    between atoms: _285  and  _288
REMARK  115  A    between atoms: _288  and  _289
REMARK  116  A    between atoms: _289  and  _290
REMARK  117  A    between atoms: _290  and  _291
REMARK  118  A    between atoms: _300  and  _302
REMARK  119  A    between atoms: _302  and  _303
REMARK  120  A    between atoms: _302  and  _305
REMARK  121  A    between atoms: _305  and  _306
REMARK                            x       y       z     vdW  Elec       q    Type
REMARK                         _______ _______ _______ _____ _____    ______ ____
ROOT
ATOM      1  O   HOH     1      31.576  33.841  30.932  0.00  0.00    +0.000 OA
ENDROOT
TORSDOF 0
