REMARK  Name = ../refined-set-2016/4owm/4owm_pocket.pdb
REMARK  91 active torsions:
REMARK  status: ('A' for Active; 'I' for Inactive)
REMARK    1  A    between atoms: _1  and  _3
REMARK    2  A    between atoms: _3  and  _4
REMARK    3  A    between atoms: _3  and  _6
REMARK    4  A    between atoms: _6  and  _7
REMARK    5  A    between atoms: _7  and  _8
REMARK    6  A    between atoms: _10  and  _12
REMARK    7  A    between atoms: _12  and  _13
REMARK    8  A    between atoms: _12  and  _15
REMARK    9  A    between atoms: _15  and  _16
REMARK   10  A    between atoms: _16  and  _17
REMARK   11  A    between atoms: _19  and  _21
REMARK   12  A    between atoms: _21  and  _22
REMARK   13  A    between atoms: _21  and  _24
REMARK   14  A    between atoms: _24  and  _25
REMARK   15  A    between atoms: _30  and  _32
REMARK   16  A    between atoms: _32  and  _33
REMARK   17  A    between atoms: _35  and  _37
REMARK   18  A    between atoms: _37  and  _38
REMARK   19  A    between atoms: _37  and  _40
REMARK   20  A    between atoms: _40  and  _41
REMARK   21  A    between atoms: _46  and  _48
REMARK   22  A    between atoms: _48  and  _49
REMARK   23  A    between atoms: _48  and  _51
REMARK   24  A    between atoms: _51  and  _52
REMARK   25  A    between atoms: _52  and  _53
REMARK   26  A    between atoms: _53  and  _54
REMARK   27  A    between atoms: _63  and  _65
REMARK   28  A    between atoms: _65  and  _66
REMARK   29  A    between atoms: _65  and  _68
REMARK   30  A    between atoms: _68  and  _69
REMARK   31  A    between atoms: _75  and  _77
REMARK   32  A    between atoms: _77  and  _78
REMARK   33  A    between atoms: _82  and  _83
REMARK   34  A    between atoms: _88  and  _90
REMARK   35  A    between atoms: _90  and  _91
REMARK   36  A    between atoms: _90  and  _93
REMARK   37  A    between atoms: _93  and  _94
REMARK   38  A    between atoms: _94  and  _95
REMARK   39  A    between atoms: _95  and  _96
REMARK   40  A    between atoms: _105  and  _107
REMARK   41  A    between atoms: _107  and  _108
REMARK   42  A    between atoms: _107  and  _110
REMARK   43  A    between atoms: _110  and  _111
REMARK   44  A    between atoms: _117  and  _119
REMARK   45  A    between atoms: _119  and  _120
REMARK   46  A    between atoms: _119  and  _122
REMARK   47  A    between atoms: _122  and  _123
REMARK   48  A    between atoms: _129  and  _130
REMARK   49  A    between atoms: _135  and  _137
REMARK   50  A    between atoms: _137  and  _138
REMARK   51  A    between atoms: _137  and  _140
REMARK   52  A    between atoms: _140  and  _141
REMARK   53  A    between atoms: _143  and  _145
REMARK   54  A    between atoms: _145  and  _146
REMARK   55  A    between atoms: _145  and  _148
REMARK   56  A    between atoms: _148  and  _149
REMARK   57  A    between atoms: _154  and  _155
REMARK   58  A    between atoms: _157  and  _159
REMARK   59  A    between atoms: _159  and  _160
REMARK   60  A    between atoms: _159  and  _162
REMARK   61  A    between atoms: _162  and  _163
REMARK   62  A    between atoms: _163  and  _164
REMARK   63  A    between atoms: _164  and  _165
REMARK   64  A    between atoms: _174  and  _176
REMARK   65  A    between atoms: _176  and  _177
REMARK   66  A    between atoms: _176  and  _179
REMARK   67  A    between atoms: _179  and  _180
REMARK   68  A    between atoms: _185  and  _187
REMARK   69  A    between atoms: _187  and  _188
REMARK   70  A    between atoms: _191  and  _193
REMARK   71  A    between atoms: _193  and  _194
REMARK   72  A    between atoms: _197  and  _199
REMARK   73  A    between atoms: _199  and  _200
REMARK   74  A    between atoms: _203  and  _205
REMARK   75  A    between atoms: _205  and  _206
REMARK   76  A    between atoms: _205  and  _208
REMARK   77  A    between atoms: _208  and  _209
REMARK   78  A    between atoms: _209  and  _210
REMARK   79  A    between atoms: _210  and  _211
REMARK   80  A    between atoms: _220  and  _222
REMARK   81  A    between atoms: _222  and  _223
REMARK   82  A    between atoms: _222  and  _225
REMARK   83  A    between atoms: _225  and  _226
REMARK   84  A    between atoms: _226  and  _227
REMARK   85  A    between atoms: _227  and  _228
REMARK   86  A    between atoms: _237  and  _239
REMARK   87  A    between atoms: _239  and  _240
REMARK   88  A    between atoms: _242  and  _244
REMARK   89  A    between atoms: _244  and  _245
REMARK   90  A    between atoms: _244  and  _247
REMARK   91  A    between atoms: _247  and  _248
REMARK                            x       y       z     vdW  Elec       q    Type
REMARK                         _______ _______ _______ _____ _____    ______ ____
ROOT
ATOM      1  CA  MET A   1      -6.773 -34.987  15.922  0.00  0.00    +0.134 C 
ENDROOT
BRANCH   1   2
ATOM      2  N   MET A   1      -5.972 -34.318  16.951  0.00  0.00    -0.239 NA
ATOM      3  H   MET A   1      -5.151 -33.749  16.659  0.00  0.00    +0.142 HD
ENDBRANCH   1   2
BRANCH   1   4
ATOM      4  C   MET A   1      -6.431 -36.470  15.796  0.00  0.00    +0.224 C 
ATOM      5  O   MET A   1      -7.245 -37.251  15.287  0.00  0.00    -0.287 OA
ENDBRANCH   1   4
BRANCH   1   6
ATOM      6  CB  MET A   1      -6.584 -34.322  14.559  0.00  0.00    +0.037 C 
BRANCH   6   7
ATOM      7  CG  MET A   1      -7.108 -32.897  14.449  0.00  0.00    +0.059 C 
BRANCH   7   8
ATOM      8  SD  MET A   1      -8.887 -32.650  14.712  0.00  0.00    -0.139 S 
ATOM      9  CE  MET A   1      -9.592 -33.519  13.323  0.00  0.00    +0.069 C 
ENDBRANCH   7   8
ENDBRANCH   6   7
ENDBRANCH   1   6
TORSDOF 5
REMARK  Name = ../refined-set-2016/4owm/4owm_pocket.pdb
REMARK  91 active torsions:
REMARK  status: ('A' for Active; 'I' for Inactive)
REMARK    1  A    between atoms: _1  and  _3
REMARK    2  A    between atoms: _3  and  _4
REMARK    3  A    between atoms: _3  and  _6
REMARK    4  A    between atoms: _6  and  _7
REMARK    5  A    between atoms: _7  and  _8
REMARK    6  A    between atoms: _10  and  _12
REMARK    7  A    between atoms: _12  and  _13
REMARK    8  A    between atoms: _12  and  _15
REMARK    9  A    between atoms: _15  and  _16
REMARK   10  A    between atoms: _16  and  _17
REMARK   11  A    between atoms: _19  and  _21
REMARK   12  A    between atoms: _21  and  _22
REMARK   13  A    between atoms: _21  and  _24
REMARK   14  A    between atoms: _24  and  _25
REMARK   15  A    between atoms: _30  and  _32
REMARK   16  A    between atoms: _32  and  _33
REMARK   17  A    between atoms: _35  and  _37
REMARK   18  A    between atoms: _37  and  _38
REMARK   19  A    between atoms: _37  and  _40
REMARK   20  A    between atoms: _40  and  _41
REMARK   21  A    between atoms: _46  and  _48
REMARK   22  A    between atoms: _48  and  _49
REMARK   23  A    between atoms: _48  and  _51
REMARK   24  A    between atoms: _51  and  _52
REMARK   25  A    between atoms: _52  and  _53
REMARK   26  A    between atoms: _53  and  _54
REMARK   27  A    between atoms: _63  and  _65
REMARK   28  A    between atoms: _65  and  _66
REMARK   29  A    between atoms: _65  and  _68
REMARK   30  A    between atoms: _68  and  _69
REMARK   31  A    between atoms: _75  and  _77
REMARK   32  A    between atoms: _77  and  _78
REMARK   33  A    between atoms: _82  and  _83
REMARK   34  A    between atoms: _88  and  _90
REMARK   35  A    between atoms: _90  and  _91
REMARK   36  A    between atoms: _90  and  _93
REMARK   37  A    between atoms: _93  and  _94
REMARK   38  A    between atoms: _94  and  _95
REMARK   39  A    between atoms: _95  and  _96
REMARK   40  A    between atoms: _105  and  _107
REMARK   41  A    between atoms: _107  and  _108
REMARK   42  A    between atoms: _107  and  _110
REMARK   43  A    between atoms: _110  and  _111
REMARK   44  A    between atoms: _117  and  _119
REMARK   45  A    between atoms: _119  and  _120
REMARK   46  A    between atoms: _119  and  _122
REMARK   47  A    between atoms: _122  and  _123
REMARK   48  A    between atoms: _129  and  _130
REMARK   49  A    between atoms: _135  and  _137
REMARK   50  A    between atoms: _137  and  _138
REMARK   51  A    between atoms: _137  and  _140
REMARK   52  A    between atoms: _140  and  _141
REMARK   53  A    between atoms: _143  and  _145
REMARK   54  A    between atoms: _145  and  _146
REMARK   55  A    between atoms: _145  and  _148
REMARK   56  A    between atoms: _148  and  _149
REMARK   57  A    between atoms: _154  and  _155
REMARK   58  A    between atoms: _157  and  _159
REMARK   59  A    between atoms: _159  and  _160
REMARK   60  A    between atoms: _159  and  _162
REMARK   61  A    between atoms: _162  and  _163
REMARK   62  A    between atoms: _163  and  _164
REMARK   63  A    between atoms: _164  and  _165
REMARK   64  A    between atoms: _174  and  _176
REMARK   65  A    between atoms: _176  and  _177
REMARK   66  A    between atoms: _176  and  _179
REMARK   67  A    between atoms: _179  and  _180
REMARK   68  A    between atoms: _185  and  _187
REMARK   69  A    between atoms: _187  and  _188
REMARK   70  A    between atoms: _191  and  _193
REMARK   71  A    between atoms: _193  and  _194
REMARK   72  A    between atoms: _197  and  _199
REMARK   73  A    between atoms: _199  and  _200
REMARK   74  A    between atoms: _203  and  _205
REMARK   75  A    between atoms: _205  and  _206
REMARK   76  A    between atoms: _205  and  _208
REMARK   77  A    between atoms: _208  and  _209
REMARK   78  A    between atoms: _209  and  _210
REMARK   79  A    between atoms: _210  and  _211
REMARK   80  A    between atoms: _220  and  _222
REMARK   81  A    between atoms: _222  and  _223
REMARK   82  A    between atoms: _222  and  _225
REMARK   83  A    between atoms: _225  and  _226
REMARK   84  A    between atoms: _226  and  _227
REMARK   85  A    between atoms: _227  and  _228
REMARK   86  A    between atoms: _237  and  _239
REMARK   87  A    between atoms: _239  and  _240
REMARK   88  A    between atoms: _242  and  _244
REMARK   89  A    between atoms: _244  and  _245
REMARK   90  A    between atoms: _244  and  _247
REMARK   91  A    between atoms: _247  and  _248
REMARK                            x       y       z     vdW  Elec       q    Type
REMARK                         _______ _______ _______ _____ _____    ______ ____
ROOT
ATOM      1  CA  MET A   1      -8.407 -30.248  10.998  0.00  0.00    +0.134 C 
ENDROOT
BRANCH   1   2
ATOM      2  N   MET A   1      -7.099 -29.635  10.872  0.00  0.00    -0.239 NA
ATOM      3  H   MET A   1      -6.946 -28.664  11.213  0.00  0.00    +0.142 HD
ENDBRANCH   1   2
BRANCH   1   4
ATOM      4  C   MET A   1      -8.961 -30.693   9.636  0.00  0.00    +0.224 C 
ATOM      5  O   MET A   1      -9.456 -31.809   9.494  0.00  0.00    -0.287 OA
ENDBRANCH   1   4
BRANCH   1   6
ATOM      6  CB  MET A   1      -9.343 -29.280  11.710  0.00  0.00    +0.037 C 
BRANCH   6   7
ATOM      7  CG  MET A   1     -10.745 -29.776  11.841  0.00  0.00    +0.059 C 
BRANCH   7   8
ATOM      8  SD  MET A   1     -11.581 -28.922  13.177  0.00  0.00    -0.139 S 
ATOM      9  CE  MET A   1     -13.191 -29.640  12.917  0.00  0.00    +0.069 C 
ENDBRANCH   7   8
ENDBRANCH   6   7
ENDBRANCH   1   6
TORSDOF 5
REMARK  Name = ../refined-set-2016/4owm/4owm_pocket.pdb
REMARK  91 active torsions:
REMARK  status: ('A' for Active; 'I' for Inactive)
REMARK    1  A    between atoms: _1  and  _3
REMARK    2  A    between atoms: _3  and  _4
REMARK    3  A    between atoms: _3  and  _6
REMARK    4  A    between atoms: _6  and  _7
REMARK    5  A    between atoms: _7  and  _8
REMARK    6  A    between atoms: _10  and  _12
REMARK    7  A    between atoms: _12  and  _13
REMARK    8  A    between atoms: _12  and  _15
REMARK    9  A    between atoms: _15  and  _16
REMARK   10  A    between atoms: _16  and  _17
REMARK   11  A    between atoms: _19  and  _21
REMARK   12  A    between atoms: _21  and  _22
REMARK   13  A    between atoms: _21  and  _24
REMARK   14  A    between atoms: _24  and  _25
REMARK   15  A    between atoms: _30  and  _32
REMARK   16  A    between atoms: _32  and  _33
REMARK   17  A    between atoms: _35  and  _37
REMARK   18  A    between atoms: _37  and  _38
REMARK   19  A    between atoms: _37  and  _40
REMARK   20  A    between atoms: _40  and  _41
REMARK   21  A    between atoms: _46  and  _48
REMARK   22  A    between atoms: _48  and  _49
REMARK   23  A    between atoms: _48  and  _51
REMARK   24  A    between atoms: _51  and  _52
REMARK   25  A    between atoms: _52  and  _53
REMARK   26  A    between atoms: _53  and  _54
REMARK   27  A    between atoms: _63  and  _65
REMARK   28  A    between atoms: _65  and  _66
REMARK   29  A    between atoms: _65  and  _68
REMARK   30  A    between atoms: _68  and  _69
REMARK   31  A    between atoms: _75  and  _77
REMARK   32  A    between atoms: _77  and  _78
REMARK   33  A    between atoms: _82  and  _83
REMARK   34  A    between atoms: _88  and  _90
REMARK   35  A    between atoms: _90  and  _91
REMARK   36  A    between atoms: _90  and  _93
REMARK   37  A    between atoms: _93  and  _94
REMARK   38  A    between atoms: _94  and  _95
REMARK   39  A    between atoms: _95  and  _96
REMARK   40  A    between atoms: _105  and  _107
REMARK   41  A    between atoms: _107  and  _108
REMARK   42  A    between atoms: _107  and  _110
REMARK   43  A    between atoms: _110  and  _111
REMARK   44  A    between atoms: _117  and  _119
REMARK   45  A    between atoms: _119  and  _120
REMARK   46  A    between atoms: _119  and  _122
REMARK   47  A    between atoms: _122  and  _123
REMARK   48  A    between atoms: _129  and  _130
REMARK   49  A    between atoms: _135  and  _137
REMARK   50  A    between atoms: _137  and  _138
REMARK   51  A    between atoms: _137  and  _140
REMARK   52  A    between atoms: _140  and  _141
REMARK   53  A    between atoms: _143  and  _145
REMARK   54  A    between atoms: _145  and  _146
REMARK   55  A    between atoms: _145  and  _148
REMARK   56  A    between atoms: _148  and  _149
REMARK   57  A    between atoms: _154  and  _155
REMARK   58  A    between atoms: _157  and  _159
REMARK   59  A    between atoms: _159  and  _160
REMARK   60  A    between atoms: _159  and  _162
REMARK   61  A    between atoms: _162  and  _163
REMARK   62  A    between atoms: _163  and  _164
REMARK   63  A    between atoms: _164  and  _165
REMARK   64  A    between atoms: _174  and  _176
REMARK   65  A    between atoms: _176  and  _177
REMARK   66  A    between atoms: _176  and  _179
REMARK   67  A    between atoms: _179  and  _180
REMARK   68  A    between atoms: _185  and  _187
REMARK   69  A    between atoms: _187  and  _188
REMARK   70  A    between atoms: _191  and  _193
REMARK   71  A    between atoms: _193  and  _194
REMARK   72  A    between atoms: _197  and  _199
REMARK   73  A    between atoms: _199  and  _200
REMARK   74  A    between atoms: _203  and  _205
REMARK   75  A    between atoms: _205  and  _206
REMARK   76  A    between atoms: _205  and  _208
REMARK   77  A    between atoms: _208  and  _209
REMARK   78  A    between atoms: _209  and  _210
REMARK   79  A    between atoms: _210  and  _211
REMARK   80  A    between atoms: _220  and  _222
REMARK   81  A    between atoms: _222  and  _223
REMARK   82  A    between atoms: _222  and  _225
REMARK   83  A    between atoms: _225  and  _226
REMARK   84  A    between atoms: _226  and  _227
REMARK   85  A    between atoms: _227  and  _228
REMARK   86  A    between atoms: _237  and  _239
REMARK   87  A    between atoms: _239  and  _240
REMARK   88  A    between atoms: _242  and  _244
REMARK   89  A    between atoms: _244  and  _245
REMARK   90  A    between atoms: _244  and  _247
REMARK   91  A    between atoms: _247  and  _248
REMARK                            x       y       z     vdW  Elec       q    Type
REMARK                         _______ _______ _______ _____ _____    ______ ____
ROOT
ATOM      1  CA  ASN A   3     -24.149 -28.908  13.570  0.00  0.00    +0.158 C 
ENDROOT
BRANCH   1   3
ATOM      2  C   GLY A   2     -23.488 -28.196  11.356  0.00  0.00    +0.243 C 
ATOM      3  N   ASN A   3     -24.238 -28.016  12.425  0.00  0.00    -0.297 N 
ATOM      4  H   ASN A   3     -24.907 -27.220  12.450  0.00  0.00    +0.150 HD
ATOM      5  O   GLY A   2     -22.768 -29.185  11.218  0.00  0.00    -0.273 OA
BRANCH   2   6
ATOM      6  CA  GLY A   2     -23.579 -27.102  10.295  0.00  0.00    +0.176 C 
BRANCH   6   8
ATOM      7  C   HIS A   1     -22.536 -26.462   8.189  0.00  0.00    +0.239 C 
ATOM      8  N   GLY A   2     -22.648 -27.307   9.206  0.00  0.00    -0.296 N 
ATOM      9  H   GLY A   2     -22.042 -28.152   9.221  0.00  0.00    +0.150 HD
ATOM     10  O   HIS A   1     -23.091 -25.331   8.117  0.00  0.00    -0.274 OA
BRANCH   7  11
ATOM     11  CA  HIS A   1     -21.659 -26.947   7.059  0.00  0.00    +0.151 C 
BRANCH  11  12
ATOM     12  N   HIS A   1     -22.253 -26.294   5.932  0.00  0.00    -0.238 NA
ATOM     13  H   HIS A   1     -21.999 -25.302   5.750  0.00  0.00    +0.142 HD
ENDBRANCH  11  12
BRANCH  11  14
ATOM     14  CB  HIS A   1     -20.234 -26.431   7.234  0.00  0.00    +0.074 C 
BRANCH  14  15
ATOM     15  CG  HIS A   1     -19.372 -27.295   8.107  0.00  0.00    +0.082 A 
ATOM     16  ND1 HIS A   1     -18.282 -26.801   8.791  0.00  0.00    -0.227 NA
ATOM     17  CE1 HIS A   1     -17.700 -27.784   9.449  0.00  0.00    +0.199 A 
ATOM     18  NE2 HIS A   1     -18.382 -28.894   9.226  0.00  0.00    -0.221 NA
ATOM     19  CD2 HIS A   1     -19.421 -28.617   8.378  0.00  0.00    +0.115 A 
ENDBRANCH  14  15
ENDBRANCH  11  14
ENDBRANCH   7  11
ENDBRANCH   6   8
ENDBRANCH   2   6
ENDBRANCH   1   3
BRANCH   1  20
ATOM     20  C   ASN A   3     -25.349 -28.633  14.456  0.00  0.00    +0.241 C 
ATOM     21  N   ARG A   4     -25.628 -29.552  15.366  0.00  0.00    -0.298 N 
ATOM     22  H   ARG A   4     -25.109 -30.453  15.355  0.00  0.00    +0.150 HD
ATOM     23  O   ASN A   3     -26.025 -27.616  14.285  0.00  0.00    -0.273 OA
BRANCH  21  24
ATOM     24  CA  ARG A   4     -26.659 -29.326  16.395  0.00  0.00    +0.137 C 
BRANCH  24  25
ATOM     25  C   ARG A   4     -26.377 -28.080  17.258  0.00  0.00    +0.227 C 
ATOM     26  O   ARG A   4     -25.304 -27.448  17.175  0.00  0.00    -0.286 OA
ENDBRANCH  24  25
BRANCH  24  27
ATOM     27  CB  ARG A   4     -26.828 -30.573  17.279  0.00  0.00    +0.031 C 
BRANCH  27  28
ATOM     28  CG  ARG A   4     -27.170 -31.794  16.439  0.00  0.00    +0.045 C 
BRANCH  28  29
ATOM     29  CD  ARG A   4     -27.820 -32.900  17.228  0.00  0.00    +0.174 C 
BRANCH  29  30
ATOM     30  NE  ARG A   4     -28.152 -34.068  16.397  0.00  0.00    -0.265 N 
ATOM     31  HE  ARG A   4     -27.406 -34.778  16.253  0.00  0.00    +0.259 HD
ATOM     32  CZ  ARG A   4     -29.329 -34.291  15.814  0.00  0.00    +0.342 C 
ATOM     33  NH2 ARG A   4     -30.322 -33.408  15.927  0.00  0.00    -0.292 N 
ATOM     34 HH21 ARG A   4     -30.182 -32.535  16.474  0.00  0.00    +0.255 HD
ATOM     35 HH22 ARG A   4     -31.237 -33.592  15.468  0.00  0.00    +0.255 HD
ATOM     36  NH1 ARG A   4     -29.512 -35.394  15.092  0.00  0.00    -0.292 N 
ATOM     37 HH11 ARG A   4     -28.737 -36.079  14.984  0.00  0.00    +0.255 HD
ATOM     38 HH12 ARG A   4     -30.430 -35.571  14.636  0.00  0.00    +0.255 HD
ENDBRANCH  29  30
ENDBRANCH  28  29
ENDBRANCH  27  28
ENDBRANCH  24  27
ENDBRANCH  21  24
ENDBRANCH   1  20
BRANCH   1  39
ATOM     39  CB  ASN A   3     -22.847 -28.641  14.337  0.00  0.00    +0.114 C 
BRANCH  39  40
ATOM     40  CG  ASN A   3     -22.445 -29.801  15.221  0.00  0.00    +0.222 C 
ATOM     41  ND2 ASN A   3     -21.297 -29.671  15.874  0.00  0.00    -0.329 N 
ATOM     42 HD21 ASN A   3     -20.952 -30.444  16.478  0.00  0.00    +0.145 HD
ATOM     43 HD22 ASN A   3     -20.742 -28.796  15.781  0.00  0.00    +0.145 HD
ATOM     44  OD1 ASN A   3     -23.148 -30.819  15.293  0.00  0.00    -0.275 OA
ENDBRANCH  39  40
ENDBRANCH   1  39
TORSDOF 16
REMARK  Name = ../refined-set-2016/4owm/4owm_pocket.pdb
REMARK  91 active torsions:
REMARK  status: ('A' for Active; 'I' for Inactive)
REMARK    1  A    between atoms: _1  and  _3
REMARK    2  A    between atoms: _3  and  _4
REMARK    3  A    between atoms: _3  and  _6
REMARK    4  A    between atoms: _6  and  _7
REMARK    5  A    between atoms: _7  and  _8
REMARK    6  A    between atoms: _10  and  _12
REMARK    7  A    between atoms: _12  and  _13
REMARK    8  A    between atoms: _12  and  _15
REMARK    9  A    between atoms: _15  and  _16
REMARK   10  A    between atoms: _16  and  _17
REMARK   11  A    between atoms: _19  and  _21
REMARK   12  A    between atoms: _21  and  _22
REMARK   13  A    between atoms: _21  and  _24
REMARK   14  A    between atoms: _24  and  _25
REMARK   15  A    between atoms: _30  and  _32
REMARK   16  A    between atoms: _32  and  _33
REMARK   17  A    between atoms: _35  and  _37
REMARK   18  A    between atoms: _37  and  _38
REMARK   19  A    between atoms: _37  and  _40
REMARK   20  A    between atoms: _40  and  _41
REMARK   21  A    between atoms: _46  and  _48
REMARK   22  A    between atoms: _48  and  _49
REMARK   23  A    between atoms: _48  and  _51
REMARK   24  A    between atoms: _51  and  _52
REMARK   25  A    between atoms: _52  and  _53
REMARK   26  A    between atoms: _53  and  _54
REMARK   27  A    between atoms: _63  and  _65
REMARK   28  A    between atoms: _65  and  _66
REMARK   29  A    between atoms: _65  and  _68
REMARK   30  A    between atoms: _68  and  _69
REMARK   31  A    between atoms: _75  and  _77
REMARK   32  A    between atoms: _77  and  _78
REMARK   33  A    between atoms: _82  and  _83
REMARK   34  A    between atoms: _88  and  _90
REMARK   35  A    between atoms: _90  and  _91
REMARK   36  A    between atoms: _90  and  _93
REMARK   37  A    between atoms: _93  and  _94
REMARK   38  A    between atoms: _94  and  _95
REMARK   39  A    between atoms: _95  and  _96
REMARK   40  A    between atoms: _105  and  _107
REMARK   41  A    between atoms: _107  and  _108
REMARK   42  A    between atoms: _107  and  _110
REMARK   43  A    between atoms: _110  and  _111
REMARK   44  A    between atoms: _117  and  _119
REMARK   45  A    between atoms: _119  and  _120
REMARK   46  A    between atoms: _119  and  _122
REMARK   47  A    between atoms: _122  and  _123
REMARK   48  A    between atoms: _129  and  _130
REMARK   49  A    between atoms: _135  and  _137
REMARK   50  A    between atoms: _137  and  _138
REMARK   51  A    between atoms: _137  and  _140
REMARK   52  A    between atoms: _140  and  _141
REMARK   53  A    between atoms: _143  and  _145
REMARK   54  A    between atoms: _145  and  _146
REMARK   55  A    between atoms: _145  and  _148
REMARK   56  A    between atoms: _148  and  _149
REMARK   57  A    between atoms: _154  and  _155
REMARK   58  A    between atoms: _157  and  _159
REMARK   59  A    between atoms: _159  and  _160
REMARK   60  A    between atoms: _159  and  _162
REMARK   61  A    between atoms: _162  and  _163
REMARK   62  A    between atoms: _163  and  _164
REMARK   63  A    between atoms: _164  and  _165
REMARK   64  A    between atoms: _174  and  _176
REMARK   65  A    between atoms: _176  and  _177
REMARK   66  A    between atoms: _176  and  _179
REMARK   67  A    between atoms: _179  and  _180
REMARK   68  A    between atoms: _185  and  _187
REMARK   69  A    between atoms: _187  and  _188
REMARK   70  A    between atoms: _191  and  _193
REMARK   71  A    between atoms: _193  and  _194
REMARK   72  A    between atoms: _197  and  _199
REMARK   73  A    between atoms: _199  and  _200
REMARK   74  A    between atoms: _203  and  _205
REMARK   75  A    between atoms: _205  and  _206
REMARK   76  A    between atoms: _205  and  _208
REMARK   77  A    between atoms: _208  and  _209
REMARK   78  A    between atoms: _209  and  _210
REMARK   79  A    between atoms: _210  and  _211
REMARK   80  A    between atoms: _220  and  _222
REMARK   81  A    between atoms: _222  and  _223
REMARK   82  A    between atoms: _222  and  _225
REMARK   83  A    between atoms: _225  and  _226
REMARK   84  A    between atoms: _226  and  _227
REMARK   85  A    between atoms: _227  and  _228
REMARK   86  A    between atoms: _237  and  _239
REMARK   87  A    between atoms: _239  and  _240
REMARK   88  A    between atoms: _242  and  _244
REMARK   89  A    between atoms: _244  and  _245
REMARK   90  A    between atoms: _244  and  _247
REMARK   91  A    between atoms: _247  and  _248
REMARK                            x       y       z     vdW  Elec       q    Type
REMARK                         _______ _______ _______ _____ _____    ______ ____
ROOT
ATOM      1  C   HIS A   6     -14.858 -35.758  12.292  0.00  0.00    +0.244 C 
ATOM      2  O   HIS A   6     -14.773 -35.310  13.427  0.00  0.00    -0.273 OA
ATOM      3  N   PRO A   7     -14.824 -37.076  12.035  0.00  0.00    -0.272 N 
ATOM      4  CA  PRO A   7     -14.819 -38.015  13.176  0.00  0.00    +0.152 C 
ATOM      5  CB  PRO A   7     -14.791 -39.409  12.489  0.00  0.00    +0.031 C 
ATOM      6  CG  PRO A   7     -14.186 -39.134  11.152  0.00  0.00    +0.024 C 
ATOM      7  CD  PRO A   7     -14.707 -37.782  10.747  0.00  0.00    +0.094 C 
ENDROOT
BRANCH   4   8
ATOM      8  C   PRO A   7     -13.613 -37.845  14.113  0.00  0.00    +0.241 C 
ATOM      9  O   PRO A   7     -13.756 -38.021  15.328  0.00  0.00    -0.273 OA
ATOM     10  N   SER A   8     -12.448 -37.485  13.576  0.00  0.00    -0.295 N 
ATOM     11  H   SER A   8     -12.390 -37.305  12.553  0.00  0.00    +0.150 HD
BRANCH  10  12
ATOM     12  CA  SER A   8     -11.247 -37.338  14.404  0.00  0.00    +0.178 C 
BRANCH  12  13
ATOM     13  C   SER A   8     -11.259 -36.125  15.330  0.00  0.00    +0.243 C 
ATOM     14  O   SER A   8     -10.383 -35.987  16.166  0.00  0.00    -0.273 OA
ATOM     15  N   TYR A   9     -12.256 -35.257  15.185  0.00  0.00    -0.297 N 
ATOM     16  H   TYR A   9     -12.957 -35.419  14.434  0.00  0.00    +0.150 HD
BRANCH  15  17
ATOM     17  CA  TYR A   9     -12.402 -34.079  16.047  0.00  0.00    +0.153 C 
BRANCH  17  18
ATOM     18  C   TYR A   9     -13.090 -34.453  17.367  0.00  0.00    +0.241 C 
ATOM     19  O   TYR A   9     -13.251 -33.612  18.240  0.00  0.00    -0.273 OA
ATOM     20  N   ARG A  10     -13.509 -35.707  17.499  0.00  0.00    -0.297 N 
ATOM     21  H   ARG A  10     -13.269 -36.399  16.760  0.00  0.00    +0.150 HD
BRANCH  20  22
ATOM     22  CA  ARG A  10     -14.302 -36.148  18.657  0.00  0.00    +0.149 C 
BRANCH  22  23
ATOM     23  C   ARG A  10     -13.665 -35.878  20.019  0.00  0.00    +0.241 C 
ATOM     24  O   ARG A  10     -14.383 -35.624  20.984  0.00  0.00    -0.273 OA
ATOM     25  N   HIS A  11     -12.336 -35.900  20.100  0.00  0.00    -0.297 N 
ATOM     26  H   HIS A  11     -11.770 -36.075  19.245  0.00  0.00    +0.150 HD
BRANCH  25  27
ATOM     27  CA  HIS A  11     -11.662 -35.679  21.389  0.00  0.00    +0.155 C 
BRANCH  27  28
ATOM     28  C   HIS A  11     -11.781 -34.219  21.787  0.00  0.00    +0.241 C 
ATOM     29  O   HIS A  11     -12.142 -33.908  22.937  0.00  0.00    -0.273 OA
ATOM     30  N   ALA A  12     -11.517 -33.332  20.830  0.00  0.00    -0.297 N 
ATOM     31  H   ALA A  12     -11.161 -33.673  19.914  0.00  0.00    +0.150 HD
BRANCH  30  32
ATOM     32  CA  ALA A  12     -11.710 -31.895  21.022  0.00  0.00    +0.149 C 
ATOM     33  CB  ALA A  12     -11.258 -31.123  19.788  0.00  0.00    +0.031 C 
BRANCH  32  34
ATOM     34  C   ALA A  12     -13.156 -31.546  21.339  0.00  0.00    +0.241 C 
ATOM     35  O   ALA A  12     -13.418 -30.721  22.217  0.00  0.00    -0.273 OA
ATOM     36  N   ALA A  13     -14.092 -32.126  20.588  0.00  0.00    -0.297 N 
ATOM     37  H   ALA A  13     -13.811 -32.809  19.856  0.00  0.00    +0.150 HD
BRANCH  36  38
ATOM     38  CA  ALA A  13     -15.513 -31.816  20.779  0.00  0.00    +0.149 C 
ATOM     39  CB  ALA A  13     -16.384 -32.596  19.811  0.00  0.00    +0.031 C 
BRANCH  38  40
ATOM     40  C   ALA A  13     -15.931 -32.122  22.191  0.00  0.00    +0.241 C 
ATOM     41  O   ALA A  13     -16.634 -31.332  22.807  0.00  0.00    -0.273 OA
ATOM     42  N   ALA A  14     -15.509 -33.280  22.695  0.00  0.00    -0.298 N 
ATOM     43  H   ALA A  14     -14.921 -33.908  22.111  0.00  0.00    +0.150 HD
BRANCH  42  44
ATOM     44  CA  ALA A  14     -15.860 -33.682  24.057  0.00  0.00    +0.137 C 
ATOM     45  CB  ALA A  14     -15.383 -35.100  24.346  0.00  0.00    +0.030 C 
BRANCH  44  46
ATOM     46  C   ALA A  14     -15.300 -32.696  25.094  0.00  0.00    +0.227 C 
ATOM     47  O   ALA A  14     -15.998 -32.319  26.033  0.00  0.00    -0.286 OA
ENDBRANCH  44  46
ENDBRANCH  42  44
ENDBRANCH  38  40
ENDBRANCH  36  38
ENDBRANCH  32  34
ENDBRANCH  30  32
ENDBRANCH  27  28
BRANCH  27  48
ATOM     48  CB  HIS A  11     -10.199 -36.134  21.340  0.00  0.00    +0.076 C 
BRANCH  48  49
ATOM     49  CG  HIS A  11     -10.007 -37.452  20.656  0.00  0.00    +0.082 A 
ATOM     50  ND1 HIS A  11     -10.252 -38.654  21.275  0.00  0.00    -0.227 NA
ATOM     51  CE1 HIS A  11     -10.009 -39.642  20.434  0.00  0.00    +0.199 A 
ATOM     52  NE2 HIS A  11      -9.633 -39.121  19.282  0.00  0.00    -0.221 NA
ATOM     53  CD2 HIS A  11      -9.610 -37.754  19.398  0.00  0.00    +0.115 A 
ENDBRANCH  48  49
ENDBRANCH  27  48
ENDBRANCH  25  27
ENDBRANCH  22  23
BRANCH  22  54
ATOM     54  CB  ARG A  10     -14.666 -37.634  18.541  0.00  0.00    +0.033 C 
BRANCH  54  55
ATOM     55  CG  ARG A  10     -13.502 -38.598  18.544  0.00  0.00    +0.045 C 
BRANCH  55  56
ATOM     56  CD  ARG A  10     -13.989 -40.014  18.232  0.00  0.00    +0.174 C 
BRANCH  56  57
ATOM     57  NE  ARG A  10     -12.910 -40.990  18.333  0.00  0.00    -0.265 N 
ATOM     58  HE  ARG A  10     -12.795 -41.476  19.245  0.00  0.00    +0.259 HD
ATOM     59  CZ  ARG A  10     -12.057 -41.316  17.359  0.00  0.00    +0.342 C 
ATOM     60  NH2 ARG A  10     -11.114 -42.215  17.610  0.00  0.00    -0.292 N 
ATOM     61 HH21 ARG A  10     -11.049 -42.652  18.552  0.00  0.00    +0.255 HD
ATOM     62 HH22 ARG A  10     -10.440 -42.483  16.865  0.00  0.00    +0.255 HD
ATOM     63  NH1 ARG A  10     -12.114 -40.756  16.148  0.00  0.00    -0.292 N 
ATOM     64 HH11 ARG A  10     -12.840 -40.041  15.939  0.00  0.00    +0.255 HD
ATOM     65 HH12 ARG A  10     -11.433 -41.035  15.414  0.00  0.00    +0.255 HD
ENDBRANCH  56  57
ENDBRANCH  55  56
ENDBRANCH  54  55
ENDBRANCH  22  54
ENDBRANCH  20  22
ENDBRANCH  17  18
BRANCH  17  66
ATOM     66  CB  TYR A   9     -13.223 -33.021  15.312  0.00  0.00    +0.055 C 
BRANCH  66  67
ATOM     67  CG  TYR A   9     -13.341 -31.685  16.001  0.00  0.00    -0.020 A 
ATOM     68  CD2 TYR A   9     -14.564 -31.245  16.528  0.00  0.00    -0.001 A 
ATOM     69  CE2 TYR A   9     -14.677 -29.993  17.148  0.00  0.00    +0.036 A 
ATOM     70  CZ  TYR A   9     -13.565 -29.186  17.240  0.00  0.00    +0.134 A 
ATOM     71  CE1 TYR A   9     -12.340 -29.604  16.723  0.00  0.00    +0.036 A 
ATOM     72  CD1 TYR A   9     -12.243 -30.843  16.107  0.00  0.00    -0.001 A 
BRANCH  70  73
ATOM     73  OH  TYR A   9     -13.649 -27.940  17.842  0.00  0.00    -0.506 OA
ATOM     74  HH  TYR A   9     -12.761 -27.503  17.819  0.00  0.00    +0.292 HD
ENDBRANCH  70  73
ENDBRANCH  66  67
ENDBRANCH  17  66
ENDBRANCH  15  17
ENDBRANCH  12  13
BRANCH  12  75
ATOM     75  CB  SER A   8      -9.981 -37.315  13.548  0.00  0.00    +0.166 C 
BRANCH  75  76
ATOM     76  OG  SER A   8      -9.870 -38.528  12.808  0.00  0.00    -0.380 OA
ATOM     77  H   SER A   8      -9.048 -38.503  12.257  0.00  0.00    +0.211 HD
ENDBRANCH  75  76
ENDBRANCH  12  75
ENDBRANCH  10  12
ENDBRANCH   4   8
BRANCH   1  78
ATOM     78  CA  HIS A   6     -14.927 -34.800  11.114  0.00  0.00    +0.155 C 
BRANCH  78  80
ATOM     79  C   PHE A   5     -16.023 -35.245   8.987  0.00  0.00    +0.241 C 
ATOM     80  N   HIS A   6     -16.104 -35.003  10.289  0.00  0.00    -0.297 N 
ATOM     81  H   HIS A   6     -17.043 -34.957  10.734  0.00  0.00    +0.150 HD
ATOM     82  O   PHE A   5     -14.945 -35.331   8.373  0.00  0.00    -0.273 OA
BRANCH  79  83
ATOM     83  CA  PHE A   5     -17.345 -35.443   8.251  0.00  0.00    +0.153 C 
BRANCH  83  85
ATOM     84  C   ARG A   4     -18.817 -37.029   9.353  0.00  0.00    +0.241 C 
ATOM     85  N   PHE A   5     -18.501 -35.769   9.099  0.00  0.00    -0.297 N 
ATOM     86  H   PHE A   5     -19.076 -35.002   9.503  0.00  0.00    +0.150 HD
ATOM     87  O   ARG A   4     -18.119 -37.944   8.953  0.00  0.00    -0.273 OA
BRANCH  84  88
ATOM     88  CA  ARG A   4     -20.096 -37.303  10.188  0.00  0.00    +0.149 C 
BRANCH  88  91
ATOM     89  C   PRO A   3     -19.500 -36.302  12.321  0.00  0.00    +0.241 C 
ATOM     90  O   PRO A   3     -18.672 -37.168  12.534  0.00  0.00    -0.273 OA
ATOM     91  N   ARG A   4     -20.254 -36.293  11.233  0.00  0.00    -0.297 N 
ATOM     92  H   ARG A   4     -20.974 -35.551  11.119  0.00  0.00    +0.150 HD
BRANCH  89  98
ATOM     93  C   ALA A   2     -19.339 -33.311  11.864  0.00  0.00    +0.244 C 
ATOM     94  N   PRO A   3     -20.138 -33.909  12.761  0.00  0.00    -0.272 N 
ATOM     95  CD  PRO A   3     -21.281 -33.333  13.495  0.00  0.00    +0.094 C 
ATOM     96  CG  PRO A   3     -21.442 -34.242  14.690  0.00  0.00    +0.024 C 
ATOM     97  CB  PRO A   3     -20.880 -35.554  14.282  0.00  0.00    +0.031 C 
ATOM     98  CA  PRO A   3     -19.716 -35.188  13.330  0.00  0.00    +0.152 C 
ATOM     99  O   ALA A   2     -18.262 -33.797  11.529  0.00  0.00    -0.273 OA
BRANCH  93 100
ATOM    100  CA  ALA A   2     -19.803 -31.994  11.246  0.00  0.00    +0.149 C 
ATOM    101  CB  ALA A   2     -19.553 -30.813  12.200  0.00  0.00    +0.031 C 
BRANCH 100 103
ATOM    102  C   PHE A   1     -21.652 -32.930   9.943  0.00  0.00    +0.239 C 
ATOM    103  N   ALA A   2     -21.191 -31.996  10.769  0.00  0.00    -0.297 N 
ATOM    104  H   ALA A   2     -21.834 -31.243  11.087  0.00  0.00    +0.150 HD
ATOM    105  O   PHE A   1     -21.014 -33.931   9.620  0.00  0.00    -0.274 OA
BRANCH 102 106
ATOM    106  CA  PHE A   1     -23.020 -32.672   9.334  0.00  0.00    +0.149 C 
BRANCH 106 107
ATOM    107  N   PHE A   1     -22.791 -32.621   7.901  0.00  0.00    -0.238 NA
ATOM    108  H   PHE A   1     -22.897 -33.500   7.355  0.00  0.00    +0.142 HD
ENDBRANCH 106 107
BRANCH 106 109
ATOM    109  CB  PHE A   1     -24.000 -33.812   9.614  0.00  0.00    +0.053 C 
BRANCH 109 110
ATOM    110  CG  PHE A   1     -24.365 -33.996  11.074  0.00  0.00    -0.020 A 
ATOM    111  CD2 PHE A   1     -24.837 -32.935  11.837  0.00  0.00    -0.004 A 
ATOM    112  CE2 PHE A   1     -25.180 -33.118  13.169  0.00  0.00    -0.000 A 
ATOM    113  CZ  PHE A   1     -25.073 -34.376  13.742  0.00  0.00    -0.000 A 
ATOM    114  CE1 PHE A   1     -24.630 -35.446  12.988  0.00  0.00    -0.000 A 
ATOM    115  CD1 PHE A   1     -24.276 -35.248  11.656  0.00  0.00    -0.004 A 
ENDBRANCH 109 110
ENDBRANCH 106 109
ENDBRANCH 102 106
ENDBRANCH 100 103
ENDBRANCH  93 100
ENDBRANCH  89  98
ENDBRANCH  88  91
BRANCH  88 116
ATOM    116  CB  ARG A   4     -21.352 -37.286   9.302  0.00  0.00    +0.033 C 
BRANCH 116 117
ATOM    117  CG  ARG A   4     -21.298 -38.156   8.063  0.00  0.00    +0.045 C 
BRANCH 117 118
ATOM    118  CD  ARG A   4     -21.397 -39.625   8.422  0.00  0.00    +0.174 C 
BRANCH 118 119
ATOM    119  NE  ARG A   4     -21.190 -40.482   7.258  0.00  0.00    -0.265 N 
ATOM    120  HE  ARG A   4     -22.018 -40.976   6.869  0.00  0.00    +0.259 HD
ATOM    121  CZ  ARG A   4     -20.014 -40.677   6.658  0.00  0.00    +0.342 C 
ATOM    122  NH2 ARG A   4     -18.914 -40.058   7.081  0.00  0.00    -0.292 N 
ATOM    123 HH21 ARG A   4     -18.962 -39.409   7.892  0.00  0.00    +0.255 HD
ATOM    124 HH22 ARG A   4     -18.007 -40.223   6.600  0.00  0.00    +0.255 HD
ATOM    125  NH1 ARG A   4     -19.931 -41.488   5.606  0.00  0.00    -0.292 N 
ATOM    126 HH11 ARG A   4     -20.782 -41.969   5.252  0.00  0.00    +0.255 HD
ATOM    127 HH12 ARG A   4     -19.015 -41.640   5.138  0.00  0.00    +0.255 HD
ENDBRANCH 118 119
ENDBRANCH 117 118
ENDBRANCH 116 117
ENDBRANCH  88 116
ENDBRANCH  84  88
ENDBRANCH  83  85
BRANCH  83 128
ATOM    128  CB  PHE A   5     -17.664 -34.228   7.400  0.00  0.00    +0.055 C 
BRANCH 128 129
ATOM    129  CG  PHE A   5     -18.545 -34.554   6.241  0.00  0.00    -0.020 A 
ATOM    130  CD2 PHE A   5     -19.928 -34.596   6.393  0.00  0.00    -0.004 A 
ATOM    131  CE2 PHE A   5     -20.745 -34.939   5.307  0.00  0.00    -0.000 A 
ATOM    132  CZ  PHE A   5     -20.176 -35.221   4.072  0.00  0.00    -0.000 A 
ATOM    133  CE1 PHE A   5     -18.803 -35.143   3.913  0.00  0.00    -0.000 A 
ATOM    134  CD1 PHE A   5     -17.998 -34.815   4.992  0.00  0.00    -0.004 A 
ENDBRANCH 128 129
ENDBRANCH  83 128
ENDBRANCH  79  83
ENDBRANCH  78  80
BRANCH  78 135
ATOM    135  CB  HIS A   6     -14.936 -33.381  11.668  0.00  0.00    +0.076 C 
BRANCH 135 136
ATOM    136  CG  HIS A   6     -14.914 -32.313  10.631  0.00  0.00    +0.082 A 
ATOM    137  CD2 HIS A   6     -15.858 -31.429  10.254  0.00  0.00    +0.115 A 
ATOM    138  NE2 HIS A   6     -15.308 -30.639   9.288  0.00  0.00    -0.221 NA
ATOM    139  CE1 HIS A   6     -14.056 -31.002   9.093  0.00  0.00    +0.199 A 
ATOM    140  ND1 HIS A   6     -13.797 -32.020   9.890  0.00  0.00    -0.227 NA
ENDBRANCH 135 136
ENDBRANCH  78 135
ENDBRANCH   1  78
TORSDOF 47
REMARK  Name = ../refined-set-2016/4owm/4owm_pocket.pdb
REMARK  91 active torsions:
REMARK  status: ('A' for Active; 'I' for Inactive)
REMARK    1  A    between atoms: _1  and  _3
REMARK    2  A    between atoms: _3  and  _4
REMARK    3  A    between atoms: _3  and  _6
REMARK    4  A    between atoms: _6  and  _7
REMARK    5  A    between atoms: _7  and  _8
REMARK    6  A    between atoms: _10  and  _12
REMARK    7  A    between atoms: _12  and  _13
REMARK    8  A    between atoms: _12  and  _15
REMARK    9  A    between atoms: _15  and  _16
REMARK   10  A    between atoms: _16  and  _17
REMARK   11  A    between atoms: _19  and  _21
REMARK   12  A    between atoms: _21  and  _22
REMARK   13  A    between atoms: _21  and  _24
REMARK   14  A    between atoms: _24  and  _25
REMARK   15  A    between atoms: _30  and  _32
REMARK   16  A    between atoms: _32  and  _33
REMARK   17  A    between atoms: _35  and  _37
REMARK   18  A    between atoms: _37  and  _38
REMARK   19  A    between atoms: _37  and  _40
REMARK   20  A    between atoms: _40  and  _41
REMARK   21  A    between atoms: _46  and  _48
REMARK   22  A    between atoms: _48  and  _49
REMARK   23  A    between atoms: _48  and  _51
REMARK   24  A    between atoms: _51  and  _52
REMARK   25  A    between atoms: _52  and  _53
REMARK   26  A    between atoms: _53  and  _54
REMARK   27  A    between atoms: _63  and  _65
REMARK   28  A    between atoms: _65  and  _66
REMARK   29  A    between atoms: _65  and  _68
REMARK   30  A    between atoms: _68  and  _69
REMARK   31  A    between atoms: _75  and  _77
REMARK   32  A    between atoms: _77  and  _78
REMARK   33  A    between atoms: _82  and  _83
REMARK   34  A    between atoms: _88  and  _90
REMARK   35  A    between atoms: _90  and  _91
REMARK   36  A    between atoms: _90  and  _93
REMARK   37  A    between atoms: _93  and  _94
REMARK   38  A    between atoms: _94  and  _95
REMARK   39  A    between atoms: _95  and  _96
REMARK   40  A    between atoms: _105  and  _107
REMARK   41  A    between atoms: _107  and  _108
REMARK   42  A    between atoms: _107  and  _110
REMARK   43  A    between atoms: _110  and  _111
REMARK   44  A    between atoms: _117  and  _119
REMARK   45  A    between atoms: _119  and  _120
REMARK   46  A    between atoms: _119  and  _122
REMARK   47  A    between atoms: _122  and  _123
REMARK   48  A    between atoms: _129  and  _130
REMARK   49  A    between atoms: _135  and  _137
REMARK   50  A    between atoms: _137  and  _138
REMARK   51  A    between atoms: _137  and  _140
REMARK   52  A    between atoms: _140  and  _141
REMARK   53  A    between atoms: _143  and  _145
REMARK   54  A    between atoms: _145  and  _146
REMARK   55  A    between atoms: _145  and  _148
REMARK   56  A    between atoms: _148  and  _149
REMARK   57  A    between atoms: _154  and  _155
REMARK   58  A    between atoms: _157  and  _159
REMARK   59  A    between atoms: _159  and  _160
REMARK   60  A    between atoms: _159  and  _162
REMARK   61  A    between atoms: _162  and  _163
REMARK   62  A    between atoms: _163  and  _164
REMARK   63  A    between atoms: _164  and  _165
REMARK   64  A    between atoms: _174  and  _176
REMARK   65  A    between atoms: _176  and  _177
REMARK   66  A    between atoms: _176  and  _179
REMARK   67  A    between atoms: _179  and  _180
REMARK   68  A    between atoms: _185  and  _187
REMARK   69  A    between atoms: _187  and  _188
REMARK   70  A    between atoms: _191  and  _193
REMARK   71  A    between atoms: _193  and  _194
REMARK   72  A    between atoms: _197  and  _199
REMARK   73  A    between atoms: _199  and  _200
REMARK   74  A    between atoms: _203  and  _205
REMARK   75  A    between atoms: _205  and  _206
REMARK   76  A    between atoms: _205  and  _208
REMARK   77  A    between atoms: _208  and  _209
REMARK   78  A    between atoms: _209  and  _210
REMARK   79  A    between atoms: _210  and  _211
REMARK   80  A    between atoms: _220  and  _222
REMARK   81  A    between atoms: _222  and  _223
REMARK   82  A    between atoms: _222  and  _225
REMARK   83  A    between atoms: _225  and  _226
REMARK   84  A    between atoms: _226  and  _227
REMARK   85  A    between atoms: _227  and  _228
REMARK   86  A    between atoms: _237  and  _239
REMARK   87  A    between atoms: _239  and  _240
REMARK   88  A    between atoms: _242  and  _244
REMARK   89  A    between atoms: _244  and  _245
REMARK   90  A    between atoms: _244  and  _247
REMARK   91  A    between atoms: _247  and  _248
REMARK                            x       y       z     vdW  Elec       q    Type
REMARK                         _______ _______ _______ _____ _____    ______ ____
ROOT
ATOM      1  C   ARG A   1     -16.683 -28.457  25.228  0.00  0.00    +0.238 C 
ATOM      2  O   ARG A   1     -17.034 -27.494  25.909  0.00  0.00    -0.274 OA
ATOM      3  N   ARG A   2     -17.368 -29.588  25.165  0.00  0.00    -0.298 N 
ATOM      4  H   ARG A   2     -17.036 -30.350  24.540  0.00  0.00    +0.150 HD
ENDROOT
BRANCH   1   5
ATOM      5  CA  ARG A   1     -15.411 -28.380  24.366  0.00  0.00    +0.145 C 
BRANCH   5   6
ATOM      6  N   ARG A   1     -14.583 -29.576  24.526  0.00  0.00    -0.238 NA
ATOM      7  H   ARG A   1     -14.266 -30.104  23.688  0.00  0.00    +0.142 HD
ENDBRANCH   5   6
BRANCH   5   8
ATOM      8  CB  ARG A   1     -15.769 -28.149  22.892  0.00  0.00    +0.030 C 
BRANCH   8   9
ATOM      9  CG  ARG A   1     -17.184 -27.621  22.640  0.00  0.00    +0.045 C 
BRANCH   9  10
ATOM     10  CD  ARG A   1     -17.235 -26.194  22.144  0.00  0.00    +0.174 C 
BRANCH  10  11
ATOM     11  NE  ARG A   1     -17.205 -26.141  20.686  0.00  0.00    -0.265 N 
ATOM     12  HE  ARG A   1     -16.423 -26.630  20.205  0.00  0.00    +0.259 HD
ATOM     13  CZ  ARG A   1     -18.102 -25.514  19.920  0.00  0.00    +0.342 C 
ATOM     14  NH2 ARG A   1     -19.149 -24.868  20.447  0.00  0.00    -0.292 N 
ATOM     15 HH21 ARG A   1     -19.280 -24.845  21.478  0.00  0.00    +0.255 HD
ATOM     16 HH22 ARG A   1     -19.831 -24.389  19.825  0.00  0.00    +0.255 HD
ATOM     17  NH1 ARG A   1     -17.962 -25.540  18.604  0.00  0.00    -0.292 N 
ATOM     18 HH11 ARG A   1     -17.160 -26.045  18.176  0.00  0.00    +0.255 HD
ATOM     19 HH12 ARG A   1     -18.654 -25.055  17.998  0.00  0.00    +0.255 HD
ENDBRANCH  10  11
ENDBRANCH   9  10
ENDBRANCH   8   9
ENDBRANCH   5   8
ENDBRANCH   1   5
BRANCH   3  20
ATOM     20  CA  ARG A   2     -18.581 -29.789  25.955  0.00  0.00    +0.137 C 
BRANCH  20  21
ATOM     21  C   ARG A   2     -18.284 -29.729  27.456  0.00  0.00    +0.227 C 
ATOM     22  O   ARG A   2     -18.979 -29.041  28.192  0.00  0.00    -0.286 OA
ENDBRANCH  20  21
BRANCH  20  23
ATOM     23  CB  ARG A   2     -19.268 -31.123  25.605  0.00  0.00    +0.031 C 
BRANCH  23  24
ATOM     24  CG  ARG A   2     -19.925 -31.129  24.230  0.00  0.00    +0.045 C 
BRANCH  24  25
ATOM     25  CD  ARG A   2     -20.819 -32.352  24.024  0.00  0.00    +0.174 C 
BRANCH  25  26
ATOM     26  NE  ARG A   2     -20.047 -33.589  23.904  0.00  0.00    -0.265 N 
ATOM     27  HE  ARG A   2     -19.961 -34.184  24.753  0.00  0.00    +0.259 HD
ATOM     28  CZ  ARG A   2     -19.442 -34.016  22.789  0.00  0.00    +0.342 C 
ATOM     29  NH2 ARG A   2     -18.766 -35.159  22.807  0.00  0.00    -0.292 N 
ATOM     30 HH21 ARG A   2     -18.709 -35.716  23.684  0.00  0.00    +0.255 HD
ATOM     31 HH22 ARG A   2     -18.293 -35.497  21.945  0.00  0.00    +0.255 HD
ATOM     32  NH1 ARG A   2     -19.486 -33.302  21.664  0.00  0.00    -0.292 N 
ATOM     33 HH11 ARG A   2     -19.997 -32.396  21.643  0.00  0.00    +0.255 HD
ATOM     34 HH12 ARG A   2     -19.010 -33.651  20.808  0.00  0.00    +0.255 HD
ENDBRANCH  25  26
ENDBRANCH  24  25
ENDBRANCH  23  24
ENDBRANCH  20  23
ENDBRANCH   3  20
TORSDOF 12
REMARK  Name = ../refined-set-2016/4owm/4owm_pocket.pdb
REMARK  91 active torsions:
REMARK  status: ('A' for Active; 'I' for Inactive)
REMARK    1  A    between atoms: _1  and  _3
REMARK    2  A    between atoms: _3  and  _4
REMARK    3  A    between atoms: _3  and  _6
REMARK    4  A    between atoms: _6  and  _7
REMARK    5  A    between atoms: _7  and  _8
REMARK    6  A    between atoms: _10  and  _12
REMARK    7  A    between atoms: _12  and  _13
REMARK    8  A    between atoms: _12  and  _15
REMARK    9  A    between atoms: _15  and  _16
REMARK   10  A    between atoms: _16  and  _17
REMARK   11  A    between atoms: _19  and  _21
REMARK   12  A    between atoms: _21  and  _22
REMARK   13  A    between atoms: _21  and  _24
REMARK   14  A    between atoms: _24  and  _25
REMARK   15  A    between atoms: _30  and  _32
REMARK   16  A    between atoms: _32  and  _33
REMARK   17  A    between atoms: _35  and  _37
REMARK   18  A    between atoms: _37  and  _38
REMARK   19  A    between atoms: _37  and  _40
REMARK   20  A    between atoms: _40  and  _41
REMARK   21  A    between atoms: _46  and  _48
REMARK   22  A    between atoms: _48  and  _49
REMARK   23  A    between atoms: _48  and  _51
REMARK   24  A    between atoms: _51  and  _52
REMARK   25  A    between atoms: _52  and  _53
REMARK   26  A    between atoms: _53  and  _54
REMARK   27  A    between atoms: _63  and  _65
REMARK   28  A    between atoms: _65  and  _66
REMARK   29  A    between atoms: _65  and  _68
REMARK   30  A    between atoms: _68  and  _69
REMARK   31  A    between atoms: _75  and  _77
REMARK   32  A    between atoms: _77  and  _78
REMARK   33  A    between atoms: _82  and  _83
REMARK   34  A    between atoms: _88  and  _90
REMARK   35  A    between atoms: _90  and  _91
REMARK   36  A    between atoms: _90  and  _93
REMARK   37  A    between atoms: _93  and  _94
REMARK   38  A    between atoms: _94  and  _95
REMARK   39  A    between atoms: _95  and  _96
REMARK   40  A    between atoms: _105  and  _107
REMARK   41  A    between atoms: _107  and  _108
REMARK   42  A    between atoms: _107  and  _110
REMARK   43  A    between atoms: _110  and  _111
REMARK   44  A    between atoms: _117  and  _119
REMARK   45  A    between atoms: _119  and  _120
REMARK   46  A    between atoms: _119  and  _122
REMARK   47  A    between atoms: _122  and  _123
REMARK   48  A    between atoms: _129  and  _130
REMARK   49  A    between atoms: _135  and  _137
REMARK   50  A    between atoms: _137  and  _138
REMARK   51  A    between atoms: _137  and  _140
REMARK   52  A    between atoms: _140  and  _141
REMARK   53  A    between atoms: _143  and  _145
REMARK   54  A    between atoms: _145  and  _146
REMARK   55  A    between atoms: _145  and  _148
REMARK   56  A    between atoms: _148  and  _149
REMARK   57  A    between atoms: _154  and  _155
REMARK   58  A    between atoms: _157  and  _159
REMARK   59  A    between atoms: _159  and  _160
REMARK   60  A    between atoms: _159  and  _162
REMARK   61  A    between atoms: _162  and  _163
REMARK   62  A    between atoms: _163  and  _164
REMARK   63  A    between atoms: _164  and  _165
REMARK   64  A    between atoms: _174  and  _176
REMARK   65  A    between atoms: _176  and  _177
REMARK   66  A    between atoms: _176  and  _179
REMARK   67  A    between atoms: _179  and  _180
REMARK   68  A    between atoms: _185  and  _187
REMARK   69  A    between atoms: _187  and  _188
REMARK   70  A    between atoms: _191  and  _193
REMARK   71  A    between atoms: _193  and  _194
REMARK   72  A    between atoms: _197  and  _199
REMARK   73  A    between atoms: _199  and  _200
REMARK   74  A    between atoms: _203  and  _205
REMARK   75  A    between atoms: _205  and  _206
REMARK   76  A    between atoms: _205  and  _208
REMARK   77  A    between atoms: _208  and  _209
REMARK   78  A    between atoms: _209  and  _210
REMARK   79  A    between atoms: _210  and  _211
REMARK   80  A    between atoms: _220  and  _222
REMARK   81  A    between atoms: _222  and  _223
REMARK   82  A    between atoms: _222  and  _225
REMARK   83  A    between atoms: _225  and  _226
REMARK   84  A    between atoms: _226  and  _227
REMARK   85  A    between atoms: _227  and  _228
REMARK   86  A    between atoms: _237  and  _239
REMARK   87  A    between atoms: _239  and  _240
REMARK   88  A    between atoms: _242  and  _244
REMARK   89  A    between atoms: _244  and  _245
REMARK   90  A    between atoms: _244  and  _247
REMARK   91  A    between atoms: _247  and  _248
REMARK                            x       y       z     vdW  Elec       q    Type
REMARK                         _______ _______ _______ _____ _____    ______ ____
ROOT
ATOM      1  CA  GLY A   1     -16.661 -24.981  12.336  0.00  0.00    +0.156 C 
ENDROOT
BRANCH   1   2
ATOM      2  N   GLY A   1     -15.518 -24.476  13.160  0.00  0.00    -0.238 NA
ATOM      3  H   GLY A   1     -15.689 -24.217  14.153  0.00  0.00    +0.142 HD
ENDBRANCH   1   2
BRANCH   1   4
ATOM      4  C   GLY A   1     -16.808 -24.248  11.013  0.00  0.00    +0.226 C 
ATOM      5  O   GLY A   1     -16.708 -24.856   9.942  0.00  0.00    -0.287 OA
ENDBRANCH   1   4
TORSDOF 2
REMARK  Name = ../refined-set-2016/4owm/4owm_pocket.pdb
REMARK  91 active torsions:
REMARK  status: ('A' for Active; 'I' for Inactive)
REMARK    1  A    between atoms: _1  and  _3
REMARK    2  A    between atoms: _3  and  _4
REMARK    3  A    between atoms: _3  and  _6
REMARK    4  A    between atoms: _6  and  _7
REMARK    5  A    between atoms: _7  and  _8
REMARK    6  A    between atoms: _10  and  _12
REMARK    7  A    between atoms: _12  and  _13
REMARK    8  A    between atoms: _12  and  _15
REMARK    9  A    between atoms: _15  and  _16
REMARK   10  A    between atoms: _16  and  _17
REMARK   11  A    between atoms: _19  and  _21
REMARK   12  A    between atoms: _21  and  _22
REMARK   13  A    between atoms: _21  and  _24
REMARK   14  A    between atoms: _24  and  _25
REMARK   15  A    between atoms: _30  and  _32
REMARK   16  A    between atoms: _32  and  _33
REMARK   17  A    between atoms: _35  and  _37
REMARK   18  A    between atoms: _37  and  _38
REMARK   19  A    between atoms: _37  and  _40
REMARK   20  A    between atoms: _40  and  _41
REMARK   21  A    between atoms: _46  and  _48
REMARK   22  A    between atoms: _48  and  _49
REMARK   23  A    between atoms: _48  and  _51
REMARK   24  A    between atoms: _51  and  _52
REMARK   25  A    between atoms: _52  and  _53
REMARK   26  A    between atoms: _53  and  _54
REMARK   27  A    between atoms: _63  and  _65
REMARK   28  A    between atoms: _65  and  _66
REMARK   29  A    between atoms: _65  and  _68
REMARK   30  A    between atoms: _68  and  _69
REMARK   31  A    between atoms: _75  and  _77
REMARK   32  A    between atoms: _77  and  _78
REMARK   33  A    between atoms: _82  and  _83
REMARK   34  A    between atoms: _88  and  _90
REMARK   35  A    between atoms: _90  and  _91
REMARK   36  A    between atoms: _90  and  _93
REMARK   37  A    between atoms: _93  and  _94
REMARK   38  A    between atoms: _94  and  _95
REMARK   39  A    between atoms: _95  and  _96
REMARK   40  A    between atoms: _105  and  _107
REMARK   41  A    between atoms: _107  and  _108
REMARK   42  A    between atoms: _107  and  _110
REMARK   43  A    between atoms: _110  and  _111
REMARK   44  A    between atoms: _117  and  _119
REMARK   45  A    between atoms: _119  and  _120
REMARK   46  A    between atoms: _119  and  _122
REMARK   47  A    between atoms: _122  and  _123
REMARK   48  A    between atoms: _129  and  _130
REMARK   49  A    between atoms: _135  and  _137
REMARK   50  A    between atoms: _137  and  _138
REMARK   51  A    between atoms: _137  and  _140
REMARK   52  A    between atoms: _140  and  _141
REMARK   53  A    between atoms: _143  and  _145
REMARK   54  A    between atoms: _145  and  _146
REMARK   55  A    between atoms: _145  and  _148
REMARK   56  A    between atoms: _148  and  _149
REMARK   57  A    between atoms: _154  and  _155
REMARK   58  A    between atoms: _157  and  _159
REMARK   59  A    between atoms: _159  and  _160
REMARK   60  A    between atoms: _159  and  _162
REMARK   61  A    between atoms: _162  and  _163
REMARK   62  A    between atoms: _163  and  _164
REMARK   63  A    between atoms: _164  and  _165
REMARK   64  A    between atoms: _174  and  _176
REMARK   65  A    between atoms: _176  and  _177
REMARK   66  A    between atoms: _176  and  _179
REMARK   67  A    between atoms: _179  and  _180
REMARK   68  A    between atoms: _185  and  _187
REMARK   69  A    between atoms: _187  and  _188
REMARK   70  A    between atoms: _191  and  _193
REMARK   71  A    between atoms: _193  and  _194
REMARK   72  A    between atoms: _197  and  _199
REMARK   73  A    between atoms: _199  and  _200
REMARK   74  A    between atoms: _203  and  _205
REMARK   75  A    between atoms: _205  and  _206
REMARK   76  A    between atoms: _205  and  _208
REMARK   77  A    between atoms: _208  and  _209
REMARK   78  A    between atoms: _209  and  _210
REMARK   79  A    between atoms: _210  and  _211
REMARK   80  A    between atoms: _220  and  _222
REMARK   81  A    between atoms: _222  and  _223
REMARK   82  A    between atoms: _222  and  _225
REMARK   83  A    between atoms: _225  and  _226
REMARK   84  A    between atoms: _226  and  _227
REMARK   85  A    between atoms: _227  and  _228
REMARK   86  A    between atoms: _237  and  _239
REMARK   87  A    between atoms: _239  and  _240
REMARK   88  A    between atoms: _242  and  _244
REMARK   89  A    between atoms: _244  and  _245
REMARK   90  A    between atoms: _244  and  _247
REMARK   91  A    between atoms: _247  and  _248
REMARK                            x       y       z     vdW  Elec       q    Type
REMARK                         _______ _______ _______ _____ _____    ______ ____
ROOT
ATOM      1  CA  THR A   1     -13.584 -26.405   8.146  0.00  0.00    +0.160 C 
ENDROOT
BRANCH   1   2
ATOM      2  N   THR A   1     -13.926 -25.021   8.519  0.00  0.00    -0.237 NA
ATOM      3  H   THR A   1     -14.807 -24.832   9.039  0.00  0.00    +0.142 HD
ENDBRANCH   1   2
BRANCH   1   4
ATOM      4  CB  THR A   1     -13.128 -27.214   9.385  0.00  0.00    +0.134 C 
ATOM      5  CG2 THR A   1     -11.884 -26.615   9.968  0.00  0.00    +0.034 C 
BRANCH   4   6
ATOM      6  OG1 THR A   1     -14.155 -27.190  10.381  0.00  0.00    -0.383 OA
ATOM      7  HG1 THR A   1     -14.333 -26.253  10.647  0.00  0.00    +0.210 HD
ENDBRANCH   4   6
ENDBRANCH   1   4
BRANCH   1   8
ATOM      8  C   THR A   1     -14.728 -27.136   7.443  0.00  0.00    +0.227 C 
ATOM      9  O   THR A   1     -14.881 -28.343   7.570  0.00  0.00    -0.287 OA
ENDBRANCH   1   8
TORSDOF 4
REMARK  Name = ../refined-set-2016/4owm/4owm_pocket.pdb
REMARK  91 active torsions:
REMARK  status: ('A' for Active; 'I' for Inactive)
REMARK    1  A    between atoms: _1  and  _3
REMARK    2  A    between atoms: _3  and  _4
REMARK    3  A    between atoms: _3  and  _6
REMARK    4  A    between atoms: _6  and  _7
REMARK    5  A    between atoms: _7  and  _8
REMARK    6  A    between atoms: _10  and  _12
REMARK    7  A    between atoms: _12  and  _13
REMARK    8  A    between atoms: _12  and  _15
REMARK    9  A    between atoms: _15  and  _16
REMARK   10  A    between atoms: _16  and  _17
REMARK   11  A    between atoms: _19  and  _21
REMARK   12  A    between atoms: _21  and  _22
REMARK   13  A    between atoms: _21  and  _24
REMARK   14  A    between atoms: _24  and  _25
REMARK   15  A    between atoms: _30  and  _32
REMARK   16  A    between atoms: _32  and  _33
REMARK   17  A    between atoms: _35  and  _37
REMARK   18  A    between atoms: _37  and  _38
REMARK   19  A    between atoms: _37  and  _40
REMARK   20  A    between atoms: _40  and  _41
REMARK   21  A    between atoms: _46  and  _48
REMARK   22  A    between atoms: _48  and  _49
REMARK   23  A    between atoms: _48  and  _51
REMARK   24  A    between atoms: _51  and  _52
REMARK   25  A    between atoms: _52  and  _53
REMARK   26  A    between atoms: _53  and  _54
REMARK   27  A    between atoms: _63  and  _65
REMARK   28  A    between atoms: _65  and  _66
REMARK   29  A    between atoms: _65  and  _68
REMARK   30  A    between atoms: _68  and  _69
REMARK   31  A    between atoms: _75  and  _77
REMARK   32  A    between atoms: _77  and  _78
REMARK   33  A    between atoms: _82  and  _83
REMARK   34  A    between atoms: _88  and  _90
REMARK   35  A    between atoms: _90  and  _91
REMARK   36  A    between atoms: _90  and  _93
REMARK   37  A    between atoms: _93  and  _94
REMARK   38  A    between atoms: _94  and  _95
REMARK   39  A    between atoms: _95  and  _96
REMARK   40  A    between atoms: _105  and  _107
REMARK   41  A    between atoms: _107  and  _108
REMARK   42  A    between atoms: _107  and  _110
REMARK   43  A    between atoms: _110  and  _111
REMARK   44  A    between atoms: _117  and  _119
REMARK   45  A    between atoms: _119  and  _120
REMARK   46  A    between atoms: _119  and  _122
REMARK   47  A    between atoms: _122  and  _123
REMARK   48  A    between atoms: _129  and  _130
REMARK   49  A    between atoms: _135  and  _137
REMARK   50  A    between atoms: _137  and  _138
REMARK   51  A    between atoms: _137  and  _140
REMARK   52  A    between atoms: _140  and  _141
REMARK   53  A    between atoms: _143  and  _145
REMARK   54  A    between atoms: _145  and  _146
REMARK   55  A    between atoms: _145  and  _148
REMARK   56  A    between atoms: _148  and  _149
REMARK   57  A    between atoms: _154  and  _155
REMARK   58  A    between atoms: _157  and  _159
REMARK   59  A    between atoms: _159  and  _160
REMARK   60  A    between atoms: _159  and  _162
REMARK   61  A    between atoms: _162  and  _163
REMARK   62  A    between atoms: _163  and  _164
REMARK   63  A    between atoms: _164  and  _165
REMARK   64  A    between atoms: _174  and  _176
REMARK   65  A    between atoms: _176  and  _177
REMARK   66  A    between atoms: _176  and  _179
REMARK   67  A    between atoms: _179  and  _180
REMARK   68  A    between atoms: _185  and  _187
REMARK   69  A    between atoms: _187  and  _188
REMARK   70  A    between atoms: _191  and  _193
REMARK   71  A    between atoms: _193  and  _194
REMARK   72  A    between atoms: _197  and  _199
REMARK   73  A    between atoms: _199  and  _200
REMARK   74  A    between atoms: _203  and  _205
REMARK   75  A    between atoms: _205  and  _206
REMARK   76  A    between atoms: _205  and  _208
REMARK   77  A    between atoms: _208  and  _209
REMARK   78  A    between atoms: _209  and  _210
REMARK   79  A    between atoms: _210  and  _211
REMARK   80  A    between atoms: _220  and  _222
REMARK   81  A    between atoms: _222  and  _223
REMARK   82  A    between atoms: _222  and  _225
REMARK   83  A    between atoms: _225  and  _226
REMARK   84  A    between atoms: _226  and  _227
REMARK   85  A    between atoms: _227  and  _228
REMARK   86  A    between atoms: _237  and  _239
REMARK   87  A    between atoms: _239  and  _240
REMARK   88  A    between atoms: _242  and  _244
REMARK   89  A    between atoms: _244  and  _245
REMARK   90  A    between atoms: _244  and  _247
REMARK   91  A    between atoms: _247  and  _248
REMARK                            x       y       z     vdW  Elec       q    Type
REMARK                         _______ _______ _______ _____ _____    ______ ____
ROOT
ATOM      1  O   HOH     1     -11.894 -36.035  11.153  0.00  0.00    +0.000 OA
ENDROOT
TORSDOF 0
REMARK  Name = ../refined-set-2016/4owm/4owm_pocket.pdb
REMARK  91 active torsions:
REMARK  status: ('A' for Active; 'I' for Inactive)
REMARK    1  A    between atoms: _1  and  _3
REMARK    2  A    between atoms: _3  and  _4
REMARK    3  A    between atoms: _3  and  _6
REMARK    4  A    between atoms: _6  and  _7
REMARK    5  A    between atoms: _7  and  _8
REMARK    6  A    between atoms: _10  and  _12
REMARK    7  A    between atoms: _12  and  _13
REMARK    8  A    between atoms: _12  and  _15
REMARK    9  A    between atoms: _15  and  _16
REMARK   10  A    between atoms: _16  and  _17
REMARK   11  A    between atoms: _19  and  _21
REMARK   12  A    between atoms: _21  and  _22
REMARK   13  A    between atoms: _21  and  _24
REMARK   14  A    between atoms: _24  and  _25
REMARK   15  A    between atoms: _30  and  _32
REMARK   16  A    between atoms: _32  and  _33
REMARK   17  A    between atoms: _35  and  _37
REMARK   18  A    between atoms: _37  and  _38
REMARK   19  A    between atoms: _37  and  _40
REMARK   20  A    between atoms: _40  and  _41
REMARK   21  A    between atoms: _46  and  _48
REMARK   22  A    between atoms: _48  and  _49
REMARK   23  A    between atoms: _48  and  _51
REMARK   24  A    between atoms: _51  and  _52
REMARK   25  A    between atoms: _52  and  _53
REMARK   26  A    between atoms: _53  and  _54
REMARK   27  A    between atoms: _63  and  _65
REMARK   28  A    between atoms: _65  and  _66
REMARK   29  A    between atoms: _65  and  _68
REMARK   30  A    between atoms: _68  and  _69
REMARK   31  A    between atoms: _75  and  _77
REMARK   32  A    between atoms: _77  and  _78
REMARK   33  A    between atoms: _82  and  _83
REMARK   34  A    between atoms: _88  and  _90
REMARK   35  A    between atoms: _90  and  _91
REMARK   36  A    between atoms: _90  and  _93
REMARK   37  A    between atoms: _93  and  _94
REMARK   38  A    between atoms: _94  and  _95
REMARK   39  A    between atoms: _95  and  _96
REMARK   40  A    between atoms: _105  and  _107
REMARK   41  A    between atoms: _107  and  _108
REMARK   42  A    between atoms: _107  and  _110
REMARK   43  A    between atoms: _110  and  _111
REMARK   44  A    between atoms: _117  and  _119
REMARK   45  A    between atoms: _119  and  _120
REMARK   46  A    between atoms: _119  and  _122
REMARK   47  A    between atoms: _122  and  _123
REMARK   48  A    between atoms: _129  and  _130
REMARK   49  A    between atoms: _135  and  _137
REMARK   50  A    between atoms: _137  and  _138
REMARK   51  A    between atoms: _137  and  _140
REMARK   52  A    between atoms: _140  and  _141
REMARK   53  A    between atoms: _143  and  _145
REMARK   54  A    between atoms: _145  and  _146
REMARK   55  A    between atoms: _145  and  _148
REMARK   56  A    between atoms: _148  and  _149
REMARK   57  A    between atoms: _154  and  _155
REMARK   58  A    between atoms: _157  and  _159
REMARK   59  A    between atoms: _159  and  _160
REMARK   60  A    between atoms: _159  and  _162
REMARK   61  A    between atoms: _162  and  _163
REMARK   62  A    between atoms: _163  and  _164
REMARK   63  A    between atoms: _164  and  _165
REMARK   64  A    between atoms: _174  and  _176
REMARK   65  A    between atoms: _176  and  _177
REMARK   66  A    between atoms: _176  and  _179
REMARK   67  A    between atoms: _179  and  _180
REMARK   68  A    between atoms: _185  and  _187
REMARK   69  A    between atoms: _187  and  _188
REMARK   70  A    between atoms: _191  and  _193
REMARK   71  A    between atoms: _193  and  _194
REMARK   72  A    between atoms: _197  and  _199
REMARK   73  A    between atoms: _199  and  _200
REMARK   74  A    between atoms: _203  and  _205
REMARK   75  A    between atoms: _205  and  _206
REMARK   76  A    between atoms: _205  and  _208
REMARK   77  A    between atoms: _208  and  _209
REMARK   78  A    between atoms: _209  and  _210
REMARK   79  A    between atoms: _210  and  _211
REMARK   80  A    between atoms: _220  and  _222
REMARK   81  A    between atoms: _222  and  _223
REMARK   82  A    between atoms: _222  and  _225
REMARK   83  A    between atoms: _225  and  _226
REMARK   84  A    between atoms: _226  and  _227
REMARK   85  A    between atoms: _227  and  _228
REMARK   86  A    between atoms: _237  and  _239
REMARK   87  A    between atoms: _239  and  _240
REMARK   88  A    between atoms: _242  and  _244
REMARK   89  A    between atoms: _244  and  _245
REMARK   90  A    between atoms: _244  and  _247
REMARK   91  A    between atoms: _247  and  _248
REMARK                            x       y       z     vdW  Elec       q    Type
REMARK                         _______ _______ _______ _____ _____    ______ ____
ROOT
ATOM      1  O   HOH     1     -11.498 -33.323  10.751  0.00  0.00    +0.000 OA
ENDROOT
TORSDOF 0
REMARK  Name = ../refined-set-2016/4owm/4owm_pocket.pdb
REMARK  91 active torsions:
REMARK  status: ('A' for Active; 'I' for Inactive)
REMARK    1  A    between atoms: _1  and  _3
REMARK    2  A    between atoms: _3  and  _4
REMARK    3  A    between atoms: _3  and  _6
REMARK    4  A    between atoms: _6  and  _7
REMARK    5  A    between atoms: _7  and  _8
REMARK    6  A    between atoms: _10  and  _12
REMARK    7  A    between atoms: _12  and  _13
REMARK    8  A    between atoms: _12  and  _15
REMARK    9  A    between atoms: _15  and  _16
REMARK   10  A    between atoms: _16  and  _17
REMARK   11  A    between atoms: _19  and  _21
REMARK   12  A    between atoms: _21  and  _22
REMARK   13  A    between atoms: _21  and  _24
REMARK   14  A    between atoms: _24  and  _25
REMARK   15  A    between atoms: _30  and  _32
REMARK   16  A    between atoms: _32  and  _33
REMARK   17  A    between atoms: _35  and  _37
REMARK   18  A    between atoms: _37  and  _38
REMARK   19  A    between atoms: _37  and  _40
REMARK   20  A    between atoms: _40  and  _41
REMARK   21  A    between atoms: _46  and  _48
REMARK   22  A    between atoms: _48  and  _49
REMARK   23  A    between atoms: _48  and  _51
REMARK   24  A    between atoms: _51  and  _52
REMARK   25  A    between atoms: _52  and  _53
REMARK   26  A    between atoms: _53  and  _54
REMARK   27  A    between atoms: _63  and  _65
REMARK   28  A    between atoms: _65  and  _66
REMARK   29  A    between atoms: _65  and  _68
REMARK   30  A    between atoms: _68  and  _69
REMARK   31  A    between atoms: _75  and  _77
REMARK   32  A    between atoms: _77  and  _78
REMARK   33  A    between atoms: _82  and  _83
REMARK   34  A    between atoms: _88  and  _90
REMARK   35  A    between atoms: _90  and  _91
REMARK   36  A    between atoms: _90  and  _93
REMARK   37  A    between atoms: _93  and  _94
REMARK   38  A    between atoms: _94  and  _95
REMARK   39  A    between atoms: _95  and  _96
REMARK   40  A    between atoms: _105  and  _107
REMARK   41  A    between atoms: _107  and  _108
REMARK   42  A    between atoms: _107  and  _110
REMARK   43  A    between atoms: _110  and  _111
REMARK   44  A    between atoms: _117  and  _119
REMARK   45  A    between atoms: _119  and  _120
REMARK   46  A    between atoms: _119  and  _122
REMARK   47  A    between atoms: _122  and  _123
REMARK   48  A    between atoms: _129  and  _130
REMARK   49  A    between atoms: _135  and  _137
REMARK   50  A    between atoms: _137  and  _138
REMARK   51  A    between atoms: _137  and  _140
REMARK   52  A    between atoms: _140  and  _141
REMARK   53  A    between atoms: _143  and  _145
REMARK   54  A    between atoms: _145  and  _146
REMARK   55  A    between atoms: _145  and  _148
REMARK   56  A    between atoms: _148  and  _149
REMARK   57  A    between atoms: _154  and  _155
REMARK   58  A    between atoms: _157  and  _159
REMARK   59  A    between atoms: _159  and  _160
REMARK   60  A    between atoms: _159  and  _162
REMARK   61  A    between atoms: _162  and  _163
REMARK   62  A    between atoms: _163  and  _164
REMARK   63  A    between atoms: _164  and  _165
REMARK   64  A    between atoms: _174  and  _176
REMARK   65  A    between atoms: _176  and  _177
REMARK   66  A    between atoms: _176  and  _179
REMARK   67  A    between atoms: _179  and  _180
REMARK   68  A    between atoms: _185  and  _187
REMARK   69  A    between atoms: _187  and  _188
REMARK   70  A    between atoms: _191  and  _193
REMARK   71  A    between atoms: _193  and  _194
REMARK   72  A    between atoms: _197  and  _199
REMARK   73  A    between atoms: _199  and  _200
REMARK   74  A    between atoms: _203  and  _205
REMARK   75  A    between atoms: _205  and  _206
REMARK   76  A    between atoms: _205  and  _208
REMARK   77  A    between atoms: _208  and  _209
REMARK   78  A    between atoms: _209  and  _210
REMARK   79  A    between atoms: _210  and  _211
REMARK   80  A    between atoms: _220  and  _222
REMARK   81  A    between atoms: _222  and  _223
REMARK   82  A    between atoms: _222  and  _225
REMARK   83  A    between atoms: _225  and  _226
REMARK   84  A    between atoms: _226  and  _227
REMARK   85  A    between atoms: _227  and  _228
REMARK   86  A    between atoms: _237  and  _239
REMARK   87  A    between atoms: _239  and  _240
REMARK   88  A    between atoms: _242  and  _244
REMARK   89  A    between atoms: _244  and  _245
REMARK   90  A    between atoms: _244  and  _247
REMARK   91  A    between atoms: _247  and  _248
REMARK                            x       y       z     vdW  Elec       q    Type
REMARK                         _______ _______ _______ _____ _____    ______ ____
ROOT
ATOM      1  O   HOH     1     -10.038 -34.554  18.459  0.00  0.00    +0.000 OA
ENDROOT
TORSDOF 0
REMARK  Name = ../refined-set-2016/4owm/4owm_pocket.pdb
REMARK  91 active torsions:
REMARK  status: ('A' for Active; 'I' for Inactive)
REMARK    1  A    between atoms: _1  and  _3
REMARK    2  A    between atoms: _3  and  _4
REMARK    3  A    between atoms: _3  and  _6
REMARK    4  A    between atoms: _6  and  _7
REMARK    5  A    between atoms: _7  and  _8
REMARK    6  A    between atoms: _10  and  _12
REMARK    7  A    between atoms: _12  and  _13
REMARK    8  A    between atoms: _12  and  _15
REMARK    9  A    between atoms: _15  and  _16
REMARK   10  A    between atoms: _16  and  _17
REMARK   11  A    between atoms: _19  and  _21
REMARK   12  A    between atoms: _21  and  _22
REMARK   13  A    between atoms: _21  and  _24
REMARK   14  A    between atoms: _24  and  _25
REMARK   15  A    between atoms: _30  and  _32
REMARK   16  A    between atoms: _32  and  _33
REMARK   17  A    between atoms: _35  and  _37
REMARK   18  A    between atoms: _37  and  _38
REMARK   19  A    between atoms: _37  and  _40
REMARK   20  A    between atoms: _40  and  _41
REMARK   21  A    between atoms: _46  and  _48
REMARK   22  A    between atoms: _48  and  _49
REMARK   23  A    between atoms: _48  and  _51
REMARK   24  A    between atoms: _51  and  _52
REMARK   25  A    between atoms: _52  and  _53
REMARK   26  A    between atoms: _53  and  _54
REMARK   27  A    between atoms: _63  and  _65
REMARK   28  A    between atoms: _65  and  _66
REMARK   29  A    between atoms: _65  and  _68
REMARK   30  A    between atoms: _68  and  _69
REMARK   31  A    between atoms: _75  and  _77
REMARK   32  A    between atoms: _77  and  _78
REMARK   33  A    between atoms: _82  and  _83
REMARK   34  A    between atoms: _88  and  _90
REMARK   35  A    between atoms: _90  and  _91
REMARK   36  A    between atoms: _90  and  _93
REMARK   37  A    between atoms: _93  and  _94
REMARK   38  A    between atoms: _94  and  _95
REMARK   39  A    between atoms: _95  and  _96
REMARK   40  A    between atoms: _105  and  _107
REMARK   41  A    between atoms: _107  and  _108
REMARK   42  A    between atoms: _107  and  _110
REMARK   43  A    between atoms: _110  and  _111
REMARK   44  A    between atoms: _117  and  _119
REMARK   45  A    between atoms: _119  and  _120
REMARK   46  A    between atoms: _119  and  _122
REMARK   47  A    between atoms: _122  and  _123
REMARK   48  A    between atoms: _129  and  _130
REMARK   49  A    between atoms: _135  and  _137
REMARK   50  A    between atoms: _137  and  _138
REMARK   51  A    between atoms: _137  and  _140
REMARK   52  A    between atoms: _140  and  _141
REMARK   53  A    between atoms: _143  and  _145
REMARK   54  A    between atoms: _145  and  _146
REMARK   55  A    between atoms: _145  and  _148
REMARK   56  A    between atoms: _148  and  _149
REMARK   57  A    between atoms: _154  and  _155
REMARK   58  A    between atoms: _157  and  _159
REMARK   59  A    between atoms: _159  and  _160
REMARK   60  A    between atoms: _159  and  _162
REMARK   61  A    between atoms: _162  and  _163
REMARK   62  A    between atoms: _163  and  _164
REMARK   63  A    between atoms: _164  and  _165
REMARK   64  A    between atoms: _174  and  _176
REMARK   65  A    between atoms: _176  and  _177
REMARK   66  A    between atoms: _176  and  _179
REMARK   67  A    between atoms: _179  and  _180
REMARK   68  A    between atoms: _185  and  _187
REMARK   69  A    between atoms: _187  and  _188
REMARK   70  A    between atoms: _191  and  _193
REMARK   71  A    between atoms: _193  and  _194
REMARK   72  A    between atoms: _197  and  _199
REMARK   73  A    between atoms: _199  and  _200
REMARK   74  A    between atoms: _203  and  _205
REMARK   75  A    between atoms: _205  and  _206
REMARK   76  A    between atoms: _205  and  _208
REMARK   77  A    between atoms: _208  and  _209
REMARK   78  A    between atoms: _209  and  _210
REMARK   79  A    between atoms: _210  and  _211
REMARK   80  A    between atoms: _220  and  _222
REMARK   81  A    between atoms: _222  and  _223
REMARK   82  A    between atoms: _222  and  _225
REMARK   83  A    between atoms: _225  and  _226
REMARK   84  A    between atoms: _226  and  _227
REMARK   85  A    between atoms: _227  and  _228
REMARK   86  A    between atoms: _237  and  _239
REMARK   87  A    between atoms: _239  and  _240
REMARK   88  A    between atoms: _242  and  _244
REMARK   89  A    between atoms: _244  and  _245
REMARK   90  A    between atoms: _244  and  _247
REMARK   91  A    between atoms: _247  and  _248
REMARK                            x       y       z     vdW  Elec       q    Type
REMARK                         _______ _______ _______ _____ _____    ______ ____
ROOT
ATOM      1  O   HOH     1     -16.581 -24.547  15.891  0.00  0.00    +0.000 OA
ENDROOT
TORSDOF 0
REMARK  Name = ../refined-set-2016/4owm/4owm_pocket.pdb
REMARK  91 active torsions:
REMARK  status: ('A' for Active; 'I' for Inactive)
REMARK    1  A    between atoms: _1  and  _3
REMARK    2  A    between atoms: _3  and  _4
REMARK    3  A    between atoms: _3  and  _6
REMARK    4  A    between atoms: _6  and  _7
REMARK    5  A    between atoms: _7  and  _8
REMARK    6  A    between atoms: _10  and  _12
REMARK    7  A    between atoms: _12  and  _13
REMARK    8  A    between atoms: _12  and  _15
REMARK    9  A    between atoms: _15  and  _16
REMARK   10  A    between atoms: _16  and  _17
REMARK   11  A    between atoms: _19  and  _21
REMARK   12  A    between atoms: _21  and  _22
REMARK   13  A    between atoms: _21  and  _24
REMARK   14  A    between atoms: _24  and  _25
REMARK   15  A    between atoms: _30  and  _32
REMARK   16  A    between atoms: _32  and  _33
REMARK   17  A    between atoms: _35  and  _37
REMARK   18  A    between atoms: _37  and  _38
REMARK   19  A    between atoms: _37  and  _40
REMARK   20  A    between atoms: _40  and  _41
REMARK   21  A    between atoms: _46  and  _48
REMARK   22  A    between atoms: _48  and  _49
REMARK   23  A    between atoms: _48  and  _51
REMARK   24  A    between atoms: _51  and  _52
REMARK   25  A    between atoms: _52  and  _53
REMARK   26  A    between atoms: _53  and  _54
REMARK   27  A    between atoms: _63  and  _65
REMARK   28  A    between atoms: _65  and  _66
REMARK   29  A    between atoms: _65  and  _68
REMARK   30  A    between atoms: _68  and  _69
REMARK   31  A    between atoms: _75  and  _77
REMARK   32  A    between atoms: _77  and  _78
REMARK   33  A    between atoms: _82  and  _83
REMARK   34  A    between atoms: _88  and  _90
REMARK   35  A    between atoms: _90  and  _91
REMARK   36  A    between atoms: _90  and  _93
REMARK   37  A    between atoms: _93  and  _94
REMARK   38  A    between atoms: _94  and  _95
REMARK   39  A    between atoms: _95  and  _96
REMARK   40  A    between atoms: _105  and  _107
REMARK   41  A    between atoms: _107  and  _108
REMARK   42  A    between atoms: _107  and  _110
REMARK   43  A    between atoms: _110  and  _111
REMARK   44  A    between atoms: _117  and  _119
REMARK   45  A    between atoms: _119  and  _120
REMARK   46  A    between atoms: _119  and  _122
REMARK   47  A    between atoms: _122  and  _123
REMARK   48  A    between atoms: _129  and  _130
REMARK   49  A    between atoms: _135  and  _137
REMARK   50  A    between atoms: _137  and  _138
REMARK   51  A    between atoms: _137  and  _140
REMARK   52  A    between atoms: _140  and  _141
REMARK   53  A    between atoms: _143  and  _145
REMARK   54  A    between atoms: _145  and  _146
REMARK   55  A    between atoms: _145  and  _148
REMARK   56  A    between atoms: _148  and  _149
REMARK   57  A    between atoms: _154  and  _155
REMARK   58  A    between atoms: _157  and  _159
REMARK   59  A    between atoms: _159  and  _160
REMARK   60  A    between atoms: _159  and  _162
REMARK   61  A    between atoms: _162  and  _163
REMARK   62  A    between atoms: _163  and  _164
REMARK   63  A    between atoms: _164  and  _165
REMARK   64  A    between atoms: _174  and  _176
REMARK   65  A    between atoms: _176  and  _177
REMARK   66  A    between atoms: _176  and  _179
REMARK   67  A    between atoms: _179  and  _180
REMARK   68  A    between atoms: _185  and  _187
REMARK   69  A    between atoms: _187  and  _188
REMARK   70  A    between atoms: _191  and  _193
REMARK   71  A    between atoms: _193  and  _194
REMARK   72  A    between atoms: _197  and  _199
REMARK   73  A    between atoms: _199  and  _200
REMARK   74  A    between atoms: _203  and  _205
REMARK   75  A    between atoms: _205  and  _206
REMARK   76  A    between atoms: _205  and  _208
REMARK   77  A    between atoms: _208  and  _209
REMARK   78  A    between atoms: _209  and  _210
REMARK   79  A    between atoms: _210  and  _211
REMARK   80  A    between atoms: _220  and  _222
REMARK   81  A    between atoms: _222  and  _223
REMARK   82  A    between atoms: _222  and  _225
REMARK   83  A    between atoms: _225  and  _226
REMARK   84  A    between atoms: _226  and  _227
REMARK   85  A    between atoms: _227  and  _228
REMARK   86  A    between atoms: _237  and  _239
REMARK   87  A    between atoms: _239  and  _240
REMARK   88  A    between atoms: _242  and  _244
REMARK   89  A    between atoms: _244  and  _245
REMARK   90  A    between atoms: _244  and  _247
REMARK   91  A    between atoms: _247  and  _248
REMARK                            x       y       z     vdW  Elec       q    Type
REMARK                         _______ _______ _______ _____ _____    ______ ____
ROOT
ATOM      1  O   HOH     1     -23.546 -32.731  16.722  0.00  0.00    +0.000 OA
ENDROOT
TORSDOF 0
REMARK  Name = ../refined-set-2016/4owm/4owm_pocket.pdb
REMARK  91 active torsions:
REMARK  status: ('A' for Active; 'I' for Inactive)
REMARK    1  A    between atoms: _1  and  _3
REMARK    2  A    between atoms: _3  and  _4
REMARK    3  A    between atoms: _3  and  _6
REMARK    4  A    between atoms: _6  and  _7
REMARK    5  A    between atoms: _7  and  _8
REMARK    6  A    between atoms: _10  and  _12
REMARK    7  A    between atoms: _12  and  _13
REMARK    8  A    between atoms: _12  and  _15
REMARK    9  A    between atoms: _15  and  _16
REMARK   10  A    between atoms: _16  and  _17
REMARK   11  A    between atoms: _19  and  _21
REMARK   12  A    between atoms: _21  and  _22
REMARK   13  A    between atoms: _21  and  _24
REMARK   14  A    between atoms: _24  and  _25
REMARK   15  A    between atoms: _30  and  _32
REMARK   16  A    between atoms: _32  and  _33
REMARK   17  A    between atoms: _35  and  _37
REMARK   18  A    between atoms: _37  and  _38
REMARK   19  A    between atoms: _37  and  _40
REMARK   20  A    between atoms: _40  and  _41
REMARK   21  A    between atoms: _46  and  _48
REMARK   22  A    between atoms: _48  and  _49
REMARK   23  A    between atoms: _48  and  _51
REMARK   24  A    between atoms: _51  and  _52
REMARK   25  A    between atoms: _52  and  _53
REMARK   26  A    between atoms: _53  and  _54
REMARK   27  A    between atoms: _63  and  _65
REMARK   28  A    between atoms: _65  and  _66
REMARK   29  A    between atoms: _65  and  _68
REMARK   30  A    between atoms: _68  and  _69
REMARK   31  A    between atoms: _75  and  _77
REMARK   32  A    between atoms: _77  and  _78
REMARK   33  A    between atoms: _82  and  _83
REMARK   34  A    between atoms: _88  and  _90
REMARK   35  A    between atoms: _90  and  _91
REMARK   36  A    between atoms: _90  and  _93
REMARK   37  A    between atoms: _93  and  _94
REMARK   38  A    between atoms: _94  and  _95
REMARK   39  A    between atoms: _95  and  _96
REMARK   40  A    between atoms: _105  and  _107
REMARK   41  A    between atoms: _107  and  _108
REMARK   42  A    between atoms: _107  and  _110
REMARK   43  A    between atoms: _110  and  _111
REMARK   44  A    between atoms: _117  and  _119
REMARK   45  A    between atoms: _119  and  _120
REMARK   46  A    between atoms: _119  and  _122
REMARK   47  A    between atoms: _122  and  _123
REMARK   48  A    between atoms: _129  and  _130
REMARK   49  A    between atoms: _135  and  _137
REMARK   50  A    between atoms: _137  and  _138
REMARK   51  A    between atoms: _137  and  _140
REMARK   52  A    between atoms: _140  and  _141
REMARK   53  A    between atoms: _143  and  _145
REMARK   54  A    between atoms: _145  and  _146
REMARK   55  A    between atoms: _145  and  _148
REMARK   56  A    between atoms: _148  and  _149
REMARK   57  A    between atoms: _154  and  _155
REMARK   58  A    between atoms: _157  and  _159
REMARK   59  A    between atoms: _159  and  _160
REMARK   60  A    between atoms: _159  and  _162
REMARK   61  A    between atoms: _162  and  _163
REMARK   62  A    between atoms: _163  and  _164
REMARK   63  A    between atoms: _164  and  _165
REMARK   64  A    between atoms: _174  and  _176
REMARK   65  A    between atoms: _176  and  _177
REMARK   66  A    between atoms: _176  and  _179
REMARK   67  A    between atoms: _179  and  _180
REMARK   68  A    between atoms: _185  and  _187
REMARK   69  A    between atoms: _187  and  _188
REMARK   70  A    between atoms: _191  and  _193
REMARK   71  A    between atoms: _193  and  _194
REMARK   72  A    between atoms: _197  and  _199
REMARK   73  A    between atoms: _199  and  _200
REMARK   74  A    between atoms: _203  and  _205
REMARK   75  A    between atoms: _205  and  _206
REMARK   76  A    between atoms: _205  and  _208
REMARK   77  A    between atoms: _208  and  _209
REMARK   78  A    between atoms: _209  and  _210
REMARK   79  A    between atoms: _210  and  _211
REMARK   80  A    between atoms: _220  and  _222
REMARK   81  A    between atoms: _222  and  _223
REMARK   82  A    between atoms: _222  and  _225
REMARK   83  A    between atoms: _225  and  _226
REMARK   84  A    between atoms: _226  and  _227
REMARK   85  A    between atoms: _227  and  _228
REMARK   86  A    between atoms: _237  and  _239
REMARK   87  A    between atoms: _239  and  _240
REMARK   88  A    between atoms: _242  and  _244
REMARK   89  A    between atoms: _244  and  _245
REMARK   90  A    between atoms: _244  and  _247
REMARK   91  A    between atoms: _247  and  _248
REMARK                            x       y       z     vdW  Elec       q    Type
REMARK                         _______ _______ _______ _____ _____    ______ ____
ROOT
ATOM      1  O   HOH     1     -16.937 -35.983  21.043  0.00  0.00    +0.000 OA
ENDROOT
TORSDOF 0
REMARK  Name = ../refined-set-2016/4owm/4owm_pocket.pdb
REMARK  91 active torsions:
REMARK  status: ('A' for Active; 'I' for Inactive)
REMARK    1  A    between atoms: _1  and  _3
REMARK    2  A    between atoms: _3  and  _4
REMARK    3  A    between atoms: _3  and  _6
REMARK    4  A    between atoms: _6  and  _7
REMARK    5  A    between atoms: _7  and  _8
REMARK    6  A    between atoms: _10  and  _12
REMARK    7  A    between atoms: _12  and  _13
REMARK    8  A    between atoms: _12  and  _15
REMARK    9  A    between atoms: _15  and  _16
REMARK   10  A    between atoms: _16  and  _17
REMARK   11  A    between atoms: _19  and  _21
REMARK   12  A    between atoms: _21  and  _22
REMARK   13  A    between atoms: _21  and  _24
REMARK   14  A    between atoms: _24  and  _25
REMARK   15  A    between atoms: _30  and  _32
REMARK   16  A    between atoms: _32  and  _33
REMARK   17  A    between atoms: _35  and  _37
REMARK   18  A    between atoms: _37  and  _38
REMARK   19  A    between atoms: _37  and  _40
REMARK   20  A    between atoms: _40  and  _41
REMARK   21  A    between atoms: _46  and  _48
REMARK   22  A    between atoms: _48  and  _49
REMARK   23  A    between atoms: _48  and  _51
REMARK   24  A    between atoms: _51  and  _52
REMARK   25  A    between atoms: _52  and  _53
REMARK   26  A    between atoms: _53  and  _54
REMARK   27  A    between atoms: _63  and  _65
REMARK   28  A    between atoms: _65  and  _66
REMARK   29  A    between atoms: _65  and  _68
REMARK   30  A    between atoms: _68  and  _69
REMARK   31  A    between atoms: _75  and  _77
REMARK   32  A    between atoms: _77  and  _78
REMARK   33  A    between atoms: _82  and  _83
REMARK   34  A    between atoms: _88  and  _90
REMARK   35  A    between atoms: _90  and  _91
REMARK   36  A    between atoms: _90  and  _93
REMARK   37  A    between atoms: _93  and  _94
REMARK   38  A    between atoms: _94  and  _95
REMARK   39  A    between atoms: _95  and  _96
REMARK   40  A    between atoms: _105  and  _107
REMARK   41  A    between atoms: _107  and  _108
REMARK   42  A    between atoms: _107  and  _110
REMARK   43  A    between atoms: _110  and  _111
REMARK   44  A    between atoms: _117  and  _119
REMARK   45  A    between atoms: _119  and  _120
REMARK   46  A    between atoms: _119  and  _122
REMARK   47  A    between atoms: _122  and  _123
REMARK   48  A    between atoms: _129  and  _130
REMARK   49  A    between atoms: _135  and  _137
REMARK   50  A    between atoms: _137  and  _138
REMARK   51  A    between atoms: _137  and  _140
REMARK   52  A    between atoms: _140  and  _141
REMARK   53  A    between atoms: _143  and  _145
REMARK   54  A    between atoms: _145  and  _146
REMARK   55  A    between atoms: _145  and  _148
REMARK   56  A    between atoms: _148  and  _149
REMARK   57  A    between atoms: _154  and  _155
REMARK   58  A    between atoms: _157  and  _159
REMARK   59  A    between atoms: _159  and  _160
REMARK   60  A    between atoms: _159  and  _162
REMARK   61  A    between atoms: _162  and  _163
REMARK   62  A    between atoms: _163  and  _164
REMARK   63  A    between atoms: _164  and  _165
REMARK   64  A    between atoms: _174  and  _176
REMARK   65  A    between atoms: _176  and  _177
REMARK   66  A    between atoms: _176  and  _179
REMARK   67  A    between atoms: _179  and  _180
REMARK   68  A    between atoms: _185  and  _187
REMARK   69  A    between atoms: _187  and  _188
REMARK   70  A    between atoms: _191  and  _193
REMARK   71  A    between atoms: _193  and  _194
REMARK   72  A    between atoms: _197  and  _199
REMARK   73  A    between atoms: _199  and  _200
REMARK   74  A    between atoms: _203  and  _205
REMARK   75  A    between atoms: _205  and  _206
REMARK   76  A    between atoms: _205  and  _208
REMARK   77  A    between atoms: _208  and  _209
REMARK   78  A    between atoms: _209  and  _210
REMARK   79  A    between atoms: _210  and  _211
REMARK   80  A    between atoms: _220  and  _222
REMARK   81  A    between atoms: _222  and  _223
REMARK   82  A    between atoms: _222  and  _225
REMARK   83  A    between atoms: _225  and  _226
REMARK   84  A    between atoms: _226  and  _227
REMARK   85  A    between atoms: _227  and  _228
REMARK   86  A    between atoms: _237  and  _239
REMARK   87  A    between atoms: _239  and  _240
REMARK   88  A    between atoms: _242  and  _244
REMARK   89  A    between atoms: _244  and  _245
REMARK   90  A    between atoms: _244  and  _247
REMARK   91  A    between atoms: _247  and  _248
REMARK                            x       y       z     vdW  Elec       q    Type
REMARK                         _______ _______ _______ _____ _____    ______ ____
ROOT
ATOM      1  O   HOH     1     -19.082 -26.953  13.555  0.00  0.00    +0.000 OA
ENDROOT
TORSDOF 0
REMARK  Name = ../refined-set-2016/4owm/4owm_pocket.pdb
REMARK  91 active torsions:
REMARK  status: ('A' for Active; 'I' for Inactive)
REMARK    1  A    between atoms: _1  and  _3
REMARK    2  A    between atoms: _3  and  _4
REMARK    3  A    between atoms: _3  and  _6
REMARK    4  A    between atoms: _6  and  _7
REMARK    5  A    between atoms: _7  and  _8
REMARK    6  A    between atoms: _10  and  _12
REMARK    7  A    between atoms: _12  and  _13
REMARK    8  A    between atoms: _12  and  _15
REMARK    9  A    between atoms: _15  and  _16
REMARK   10  A    between atoms: _16  and  _17
REMARK   11  A    between atoms: _19  and  _21
REMARK   12  A    between atoms: _21  and  _22
REMARK   13  A    between atoms: _21  and  _24
REMARK   14  A    between atoms: _24  and  _25
REMARK   15  A    between atoms: _30  and  _32
REMARK   16  A    between atoms: _32  and  _33
REMARK   17  A    between atoms: _35  and  _37
REMARK   18  A    between atoms: _37  and  _38
REMARK   19  A    between atoms: _37  and  _40
REMARK   20  A    between atoms: _40  and  _41
REMARK   21  A    between atoms: _46  and  _48
REMARK   22  A    between atoms: _48  and  _49
REMARK   23  A    between atoms: _48  and  _51
REMARK   24  A    between atoms: _51  and  _52
REMARK   25  A    between atoms: _52  and  _53
REMARK   26  A    between atoms: _53  and  _54
REMARK   27  A    between atoms: _63  and  _65
REMARK   28  A    between atoms: _65  and  _66
REMARK   29  A    between atoms: _65  and  _68
REMARK   30  A    between atoms: _68  and  _69
REMARK   31  A    between atoms: _75  and  _77
REMARK   32  A    between atoms: _77  and  _78
REMARK   33  A    between atoms: _82  and  _83
REMARK   34  A    between atoms: _88  and  _90
REMARK   35  A    between atoms: _90  and  _91
REMARK   36  A    between atoms: _90  and  _93
REMARK   37  A    between atoms: _93  and  _94
REMARK   38  A    between atoms: _94  and  _95
REMARK   39  A    between atoms: _95  and  _96
REMARK   40  A    between atoms: _105  and  _107
REMARK   41  A    between atoms: _107  and  _108
REMARK   42  A    between atoms: _107  and  _110
REMARK   43  A    between atoms: _110  and  _111
REMARK   44  A    between atoms: _117  and  _119
REMARK   45  A    between atoms: _119  and  _120
REMARK   46  A    between atoms: _119  and  _122
REMARK   47  A    between atoms: _122  and  _123
REMARK   48  A    between atoms: _129  and  _130
REMARK   49  A    between atoms: _135  and  _137
REMARK   50  A    between atoms: _137  and  _138
REMARK   51  A    between atoms: _137  and  _140
REMARK   52  A    between atoms: _140  and  _141
REMARK   53  A    between atoms: _143  and  _145
REMARK   54  A    between atoms: _145  and  _146
REMARK   55  A    between atoms: _145  and  _148
REMARK   56  A    between atoms: _148  and  _149
REMARK   57  A    between atoms: _154  and  _155
REMARK   58  A    between atoms: _157  and  _159
REMARK   59  A    between atoms: _159  and  _160
REMARK   60  A    between atoms: _159  and  _162
REMARK   61  A    between atoms: _162  and  _163
REMARK   62  A    between atoms: _163  and  _164
REMARK   63  A    between atoms: _164  and  _165
REMARK   64  A    between atoms: _174  and  _176
REMARK   65  A    between atoms: _176  and  _177
REMARK   66  A    between atoms: _176  and  _179
REMARK   67  A    between atoms: _179  and  _180
REMARK   68  A    between atoms: _185  and  _187
REMARK   69  A    between atoms: _187  and  _188
REMARK   70  A    between atoms: _191  and  _193
REMARK   71  A    between atoms: _193  and  _194
REMARK   72  A    between atoms: _197  and  _199
REMARK   73  A    between atoms: _199  and  _200
REMARK   74  A    between atoms: _203  and  _205
REMARK   75  A    between atoms: _205  and  _206
REMARK   76  A    between atoms: _205  and  _208
REMARK   77  A    between atoms: _208  and  _209
REMARK   78  A    between atoms: _209  and  _210
REMARK   79  A    between atoms: _210  and  _211
REMARK   80  A    between atoms: _220  and  _222
REMARK   81  A    between atoms: _222  and  _223
REMARK   82  A    between atoms: _222  and  _225
REMARK   83  A    between atoms: _225  and  _226
REMARK   84  A    between atoms: _226  and  _227
REMARK   85  A    between atoms: _227  and  _228
REMARK   86  A    between atoms: _237  and  _239
REMARK   87  A    between atoms: _239  and  _240
REMARK   88  A    between atoms: _242  and  _244
REMARK   89  A    between atoms: _244  and  _245
REMARK   90  A    between atoms: _244  and  _247
REMARK   91  A    between atoms: _247  and  _248
REMARK                            x       y       z     vdW  Elec       q    Type
REMARK                         _______ _______ _______ _____ _____    ______ ____
ROOT
ATOM      1  O   HOH     1     -22.740 -25.897  17.060  0.00  0.00    +0.000 OA
ENDROOT
TORSDOF 0
