REMARK  Name = ../refined-set-2016/1o1s/1o1s_pocket.pdb
REMARK  277 active torsions:
REMARK  status: ('A' for Active; 'I' for Inactive)
REMARK    1  A    between atoms: _1  and  _3
REMARK    2  A    between atoms: _3  and  _4
REMARK    3  A    between atoms: _7  and  _9
REMARK    4  A    between atoms: _9  and  _10
REMARK    5  A    between atoms: _9  and  _12
REMARK    6  A    between atoms: _12  and  _13
REMARK    7  A    between atoms: _18  and  _19
REMARK    8  A    between atoms: _21  and  _23
REMARK    9  A    between atoms: _23  and  _24
REMARK   10  A    between atoms: _23  and  _26
REMARK   11  A    between atoms: _26  and  _27
REMARK   12  A    between atoms: _27  and  _28
REMARK   13  A    between atoms: _28  and  _29
REMARK   14  A    between atoms: _29  and  _30
REMARK   15  A    between atoms: _34  and  _36
REMARK   16  A    between atoms: _36  and  _37
REMARK   17  A    between atoms: _36  and  _39
REMARK   18  A    between atoms: _39  and  _40
REMARK   19  A    between atoms: _45  and  _47
REMARK   20  A    between atoms: _47  and  _48
REMARK   21  A    between atoms: _47  and  _50
REMARK   22  A    between atoms: _50  and  _51
REMARK   23  A    between atoms: _56  and  _57
REMARK   24  A    between atoms: _59  and  _61
REMARK   25  A    between atoms: _61  and  _62
REMARK   26  A    between atoms: _61  and  _64
REMARK   27  A    between atoms: _64  and  _65
REMARK   28  A    between atoms: _65  and  _66
REMARK   29  A    between atoms: _71  and  _73
REMARK   30  A    between atoms: _73  and  _74
REMARK   31  A    between atoms: _73  and  _76
REMARK   32  A    between atoms: _76  and  _77
REMARK   33  A    between atoms: _80  and  _82
REMARK   34  A    between atoms: _82  and  _83
REMARK   35  A    between atoms: _82  and  _85
REMARK   36  A    between atoms: _85  and  _86
REMARK   37  A    between atoms: _86  and  _87
REMARK   38  A    between atoms: _87  and  _88
REMARK   39  A    between atoms: _88  and  _89
REMARK   40  A    between atoms: _93  and  _95
REMARK   41  A    between atoms: _95  and  _96
REMARK   42  A    between atoms: _95  and  _98
REMARK   43  A    between atoms: _98  and  _99
REMARK   44  A    between atoms: _104  and  _106
REMARK   45  A    between atoms: _106  and  _107
REMARK   46  A    between atoms: _106  and  _109
REMARK   47  A    between atoms: _109  and  _110
REMARK   48  A    between atoms: _115  and  _116
REMARK   49  A    between atoms: _118  and  _120
REMARK   50  A    between atoms: _120  and  _121
REMARK   51  A    between atoms: _120  and  _123
REMARK   52  A    between atoms: _123  and  _124
REMARK   53  A    between atoms: _129  and  _131
REMARK   54  A    between atoms: _131  and  _132
REMARK   55  A    between atoms: _135  and  _137
REMARK   56  A    between atoms: _137  and  _138
REMARK   57  A    between atoms: _137  and  _140
REMARK   58  A    between atoms: _140  and  _141
REMARK   59  A    between atoms: _141  and  _142
REMARK   60  A    between atoms: _147  and  _149
REMARK   61  A    between atoms: _149  and  _150
REMARK   62  A    between atoms: _149  and  _152
REMARK   63  A    between atoms: _152  and  _153
REMARK   64  A    between atoms: _155  and  _157
REMARK   65  A    between atoms: _157  and  _158
REMARK   66  A    between atoms: _157  and  _160
REMARK   67  A    between atoms: _160  and  _161
REMARK   68  A    between atoms: _164  and  _166
REMARK   69  A    between atoms: _166  and  _167
REMARK   70  A    between atoms: _170  and  _172
REMARK   71  A    between atoms: _172  and  _173
REMARK   72  A    between atoms: _172  and  _175
REMARK   73  A    between atoms: _175  and  _176
REMARK   74  A    between atoms: _178  and  _180
REMARK   75  A    between atoms: _180  and  _181
REMARK   76  A    between atoms: _180  and  _183
REMARK   77  A    between atoms: _183  and  _184
REMARK   78  A    between atoms: _194  and  _196
REMARK   79  A    between atoms: _196  and  _197
REMARK   80  A    between atoms: _196  and  _199
REMARK   81  A    between atoms: _199  and  _200
REMARK   82  A    between atoms: _210  and  _212
REMARK   83  A    between atoms: _212  and  _213
REMARK   84  A    between atoms: _212  and  _215
REMARK   85  A    between atoms: _215  and  _216
REMARK   86  A    between atoms: _221  and  _223
REMARK   87  A    between atoms: _223  and  _224
REMARK   88  A    between atoms: _223  and  _226
REMARK   89  A    between atoms: _226  and  _227
REMARK   90  A    between atoms: _230  and  _232
REMARK   91  A    between atoms: _232  and  _233
REMARK   92  A    between atoms: _237  and  _238
REMARK   93  A    between atoms: _243  and  _245
REMARK   94  A    between atoms: _245  and  _246
REMARK   95  A    between atoms: _245  and  _248
REMARK   96  A    between atoms: _248  and  _249
REMARK   97  A    between atoms: _252  and  _254
REMARK   98  A    between atoms: _254  and  _255
REMARK   99  A    between atoms: _254  and  _257
REMARK  100  A    between atoms: _257  and  _258
REMARK  101  A    between atoms: _263  and  _264
REMARK  102  A    between atoms: _266  and  _268
REMARK  103  A    between atoms: _268  and  _269
REMARK  104  A    between atoms: _272  and  _274
REMARK  105  A    between atoms: _274  and  _275
REMARK  106  A    between atoms: _274  and  _277
REMARK  107  A    between atoms: _277  and  _278
REMARK  108  A    between atoms: _278  and  _279
REMARK  109  A    between atoms: _281  and  _283
REMARK  110  A    between atoms: _283  and  _284
REMARK  111  A    between atoms: _283  and  _286
REMARK  112  A    between atoms: _286  and  _287
REMARK  113  A    between atoms: _292  and  _294
REMARK  114  A    between atoms: _294  and  _295
REMARK  115  A    between atoms: _294  and  _297
REMARK  116  A    between atoms: _297  and  _298
REMARK  117  A    between atoms: _298  and  _299
REMARK  118  A    between atoms: _302  and  _304
REMARK  119  A    between atoms: _304  and  _305
REMARK  120  A    between atoms: _304  and  _307
REMARK  121  A    between atoms: _307  and  _308
REMARK  122  A    between atoms: _311  and  _313
REMARK  123  A    between atoms: _313  and  _314
REMARK  124  A    between atoms: _313  and  _316
REMARK  125  A    between atoms: _319  and  _321
REMARK  126  A    between atoms: _321  and  _322
REMARK  127  A    between atoms: _321  and  _324
REMARK  128  A    between atoms: _324  and  _325
REMARK  129  A    between atoms: _325  and  _326
REMARK  130  A    between atoms: _326  and  _327
REMARK  131  A    between atoms: _336  and  _338
REMARK  132  A    between atoms: _338  and  _339
REMARK  133  A    between atoms: _338  and  _341
REMARK  134  A    between atoms: _341  and  _342
REMARK  135  A    between atoms: _344  and  _346
REMARK  136  A    between atoms: _346  and  _347
REMARK  137  A    between atoms: _346  and  _349
REMARK  138  A    between atoms: _349  and  _350
REMARK  139  A    between atoms: _355  and  _356
REMARK  140  A    between atoms: _358  and  _360
REMARK  141  A    between atoms: _360  and  _361
REMARK  142  A    between atoms: _360  and  _363
REMARK  143  A    between atoms: _365  and  _367
REMARK  144  A    between atoms: _367  and  _368
REMARK  145  A    between atoms: _370  and  _372
REMARK  146  A    between atoms: _372  and  _373
REMARK  147  A    between atoms: _372  and  _375
REMARK  148  A    between atoms: _375  and  _376
REMARK  149  A    between atoms: _376  and  _377
REMARK  150  A    between atoms: _379  and  _381
REMARK  151  A    between atoms: _381  and  _382
REMARK  152  A    between atoms: _381  and  _384
REMARK  153  A    between atoms: _384  and  _385
REMARK  154  A    between atoms: _385  and  _386
REMARK  155  A    between atoms: _389  and  _391
REMARK  156  A    between atoms: _391  and  _392
REMARK  157  A    between atoms: _395  and  _397
REMARK  158  A    between atoms: _397  and  _398
REMARK  159  A    between atoms: _397  and  _400
REMARK  160  A    between atoms: _400  and  _401
REMARK  161  A    between atoms: _406  and  _408
REMARK  162  A    between atoms: _408  and  _409
REMARK  163  A    between atoms: _411  and  _413
REMARK  164  A    between atoms: _413  and  _414
REMARK  165  A    between atoms: _416  and  _418
REMARK  166  A    between atoms: _418  and  _419
REMARK  167  A    between atoms: _418  and  _421
REMARK  168  A    between atoms: _421  and  _422
REMARK  169  A    between atoms: _427  and  _428
REMARK  170  A    between atoms: _430  and  _432
REMARK  171  A    between atoms: _432  and  _433
REMARK  172  A    between atoms: _432  and  _435
REMARK  173  A    between atoms: _435  and  _436
REMARK  174  A    between atoms: _439  and  _441
REMARK  175  A    between atoms: _441  and  _442
REMARK  176  A    between atoms: _441  and  _444
REMARK  177  A    between atoms: _444  and  _445
REMARK  178  A    between atoms: _451  and  _453
REMARK  179  A    between atoms: _453  and  _454
REMARK  180  A    between atoms: _453  and  _456
REMARK  181  A    between atoms: _458  and  _460
REMARK  182  A    between atoms: _460  and  _461
REMARK  183  A    between atoms: _463  and  _465
REMARK  184  A    between atoms: _465  and  _466
REMARK  185  A    between atoms: _465  and  _468
REMARK  186  A    between atoms: _468  and  _469
REMARK  187  A    between atoms: _475  and  _477
REMARK  188  A    between atoms: _477  and  _478
REMARK  189  A    between atoms: _477  and  _480
REMARK  190  A    between atoms: _480  and  _481
REMARK  191  A    between atoms: _481  and  _482
REMARK  192  A    between atoms: _487  and  _489
REMARK  193  A    between atoms: _489  and  _490
REMARK  194  A    between atoms: _492  and  _494
REMARK  195  A    between atoms: _494  and  _495
REMARK  196  A    between atoms: _494  and  _497
REMARK  197  A    between atoms: _497  and  _498
REMARK  198  A    between atoms: _498  and  _499
REMARK  199  A    between atoms: _499  and  _500
REMARK  200  A    between atoms: _509  and  _511
REMARK  201  A    between atoms: _511  and  _512
REMARK  202  A    between atoms: _511  and  _514
REMARK  203  A    between atoms: _516  and  _518
REMARK  204  A    between atoms: _518  and  _519
REMARK  205  A    between atoms: _518  and  _521
REMARK  206  A    between atoms: _521  and  _522
REMARK  207  A    between atoms: _527  and  _529
REMARK  208  A    between atoms: _529  and  _530
REMARK  209  A    between atoms: _529  and  _532
REMARK  210  A    between atoms: _532  and  _533
REMARK  211  A    between atoms: _533  and  _534
REMARK  212  A    between atoms: _534  and  _535
REMARK  213  A    between atoms: _535  and  _536
REMARK  214  A    between atoms: _540  and  _542
REMARK  215  A    between atoms: _542  and  _543
REMARK  216  A    between atoms: _542  and  _545
REMARK  217  A    between atoms: _545  and  _546
REMARK  218  A    between atoms: _549  and  _551
REMARK  219  A    between atoms: _551  and  _552
REMARK  220  A    between atoms: _551  and  _554
REMARK  221  A    between atoms: _557  and  _559
REMARK  222  A    between atoms: _559  and  _560
REMARK  223  A    between atoms: _559  and  _562
REMARK  224  A    between atoms: _562  and  _563
REMARK  225  A    between atoms: _563  and  _565
REMARK  226  A    between atoms: _565  and  ZN_690
REMARK  227  A    between atoms: _566  and  _568
REMARK  228  A    between atoms: _568  and  _569
REMARK  229  A    between atoms: _568  and  _571
REMARK  230  A    between atoms: _571  and  _572
REMARK  231  A    between atoms: _572  and  ZN_690
REMARK  232  A    between atoms: _573  and  _575
REMARK  233  A    between atoms: _575  and  _576
REMARK  234  A    between atoms: _575  and  _578
REMARK  235  A    between atoms: _578  and  _579
REMARK  236  A    between atoms: _584  and  _585
REMARK  237  A    between atoms: _587  and  _589
REMARK  238  A    between atoms: _589  and  _590
REMARK  239  A    between atoms: _589  and  _592
REMARK  240  A    between atoms: _592  and  _593
REMARK  241  A    between atoms: _599  and  _601
REMARK  242  A    between atoms: _601  and  _602
REMARK  243  A    between atoms: _601  and  _604
REMARK  244  A    between atoms: _604  and  _605
REMARK  245  A    between atoms: _615  and  _617
REMARK  246  A    between atoms: _617  and  _618
REMARK  247  A    between atoms: _617  and  _620
REMARK  248  A    between atoms: _620  and  _621
REMARK  249  A    between atoms: _621  and  _622
REMARK  250  A    between atoms: _627  and  _629
REMARK  251  A    between atoms: _629  and  _630
REMARK  252  A    between atoms: _629  and  _632
REMARK  253  A    between atoms: _632  and  _633
REMARK  254  A    between atoms: _636  and  _638
REMARK  255  A    between atoms: _638  and  _639
REMARK  256  A    between atoms: _638  and  _641
REMARK  257  A    between atoms: _641  and  _642
REMARK  258  A    between atoms: _642  and  _643
REMARK  259  A    between atoms: _643  and  _644
REMARK  260  A    between atoms: _644  and  _645
REMARK  261  A    between atoms: _649  and  _651
REMARK  262  A    between atoms: _651  and  _652
REMARK  263  A    between atoms: _651  and  _654
REMARK  264  A    between atoms: _654  and  _655
REMARK  265  A    between atoms: _655  and  _656
REMARK  266  A    between atoms: _656  and  _657
REMARK  267  A    between atoms: _657  and  _658
REMARK  268  A    between atoms: _662  and  _664
REMARK  269  A    between atoms: _664  and  _665
REMARK  270  A    between atoms: _664  and  _667
REMARK  271  A    between atoms: _667  and  _668
REMARK  272  A    between atoms: _673  and  _674
REMARK  273  A    between atoms: _676  and  _678
REMARK  274  A    between atoms: _678  and  _679
REMARK  275  A    between atoms: _678  and  _681
REMARK  276  A    between atoms: _681  and  _682
REMARK  277  A    between atoms: _687  and  _688
REMARK                            x       y       z     vdW  Elec       q    Type
REMARK                         _______ _______ _______ _____ _____    ______ ____
ROOT
ATOM      1  CA  ALA A   1     186.170 133.485  23.817  0.00  0.00    +0.133 C 
ATOM      2  CB  ALA A   1     185.986 133.180  25.301  0.00  0.00    +0.027 C 
ENDROOT
BRANCH   1   3
ATOM      3  N   ALA A   1     186.851 134.760  23.642  0.00  0.00    -0.239 NA
ATOM      4  H   ALA A   1     186.660 135.532  24.312  0.00  0.00    +0.142 HD
ENDBRANCH   1   3
BRANCH   1   5
ATOM      5  C   ALA A   1     184.831 133.408  23.089  0.00  0.00    +0.224 C 
ATOM      6  O   ALA A   1     184.149 132.382  23.141  0.00  0.00    -0.287 OA
ENDBRANCH   1   5
TORSDOF 2
REMARK  Name = ../refined-set-2016/1o1s/1o1s_pocket.pdb
REMARK  277 active torsions:
REMARK  status: ('A' for Active; 'I' for Inactive)
REMARK    1  A    between atoms: _1  and  _3
REMARK    2  A    between atoms: _3  and  _4
REMARK    3  A    between atoms: _7  and  _9
REMARK    4  A    between atoms: _9  and  _10
REMARK    5  A    between atoms: _9  and  _12
REMARK    6  A    between atoms: _12  and  _13
REMARK    7  A    between atoms: _18  and  _19
REMARK    8  A    between atoms: _21  and  _23
REMARK    9  A    between atoms: _23  and  _24
REMARK   10  A    between atoms: _23  and  _26
REMARK   11  A    between atoms: _26  and  _27
REMARK   12  A    between atoms: _27  and  _28
REMARK   13  A    between atoms: _28  and  _29
REMARK   14  A    between atoms: _29  and  _30
REMARK   15  A    between atoms: _34  and  _36
REMARK   16  A    between atoms: _36  and  _37
REMARK   17  A    between atoms: _36  and  _39
REMARK   18  A    between atoms: _39  and  _40
REMARK   19  A    between atoms: _45  and  _47
REMARK   20  A    between atoms: _47  and  _48
REMARK   21  A    between atoms: _47  and  _50
REMARK   22  A    between atoms: _50  and  _51
REMARK   23  A    between atoms: _56  and  _57
REMARK   24  A    between atoms: _59  and  _61
REMARK   25  A    between atoms: _61  and  _62
REMARK   26  A    between atoms: _61  and  _64
REMARK   27  A    between atoms: _64  and  _65
REMARK   28  A    between atoms: _65  and  _66
REMARK   29  A    between atoms: _71  and  _73
REMARK   30  A    between atoms: _73  and  _74
REMARK   31  A    between atoms: _73  and  _76
REMARK   32  A    between atoms: _76  and  _77
REMARK   33  A    between atoms: _80  and  _82
REMARK   34  A    between atoms: _82  and  _83
REMARK   35  A    between atoms: _82  and  _85
REMARK   36  A    between atoms: _85  and  _86
REMARK   37  A    between atoms: _86  and  _87
REMARK   38  A    between atoms: _87  and  _88
REMARK   39  A    between atoms: _88  and  _89
REMARK   40  A    between atoms: _93  and  _95
REMARK   41  A    between atoms: _95  and  _96
REMARK   42  A    between atoms: _95  and  _98
REMARK   43  A    between atoms: _98  and  _99
REMARK   44  A    between atoms: _104  and  _106
REMARK   45  A    between atoms: _106  and  _107
REMARK   46  A    between atoms: _106  and  _109
REMARK   47  A    between atoms: _109  and  _110
REMARK   48  A    between atoms: _115  and  _116
REMARK   49  A    between atoms: _118  and  _120
REMARK   50  A    between atoms: _120  and  _121
REMARK   51  A    between atoms: _120  and  _123
REMARK   52  A    between atoms: _123  and  _124
REMARK   53  A    between atoms: _129  and  _131
REMARK   54  A    between atoms: _131  and  _132
REMARK   55  A    between atoms: _135  and  _137
REMARK   56  A    between atoms: _137  and  _138
REMARK   57  A    between atoms: _137  and  _140
REMARK   58  A    between atoms: _140  and  _141
REMARK   59  A    between atoms: _141  and  _142
REMARK   60  A    between atoms: _147  and  _149
REMARK   61  A    between atoms: _149  and  _150
REMARK   62  A    between atoms: _149  and  _152
REMARK   63  A    between atoms: _152  and  _153
REMARK   64  A    between atoms: _155  and  _157
REMARK   65  A    between atoms: _157  and  _158
REMARK   66  A    between atoms: _157  and  _160
REMARK   67  A    between atoms: _160  and  _161
REMARK   68  A    between atoms: _164  and  _166
REMARK   69  A    between atoms: _166  and  _167
REMARK   70  A    between atoms: _170  and  _172
REMARK   71  A    between atoms: _172  and  _173
REMARK   72  A    between atoms: _172  and  _175
REMARK   73  A    between atoms: _175  and  _176
REMARK   74  A    between atoms: _178  and  _180
REMARK   75  A    between atoms: _180  and  _181
REMARK   76  A    between atoms: _180  and  _183
REMARK   77  A    between atoms: _183  and  _184
REMARK   78  A    between atoms: _194  and  _196
REMARK   79  A    between atoms: _196  and  _197
REMARK   80  A    between atoms: _196  and  _199
REMARK   81  A    between atoms: _199  and  _200
REMARK   82  A    between atoms: _210  and  _212
REMARK   83  A    between atoms: _212  and  _213
REMARK   84  A    between atoms: _212  and  _215
REMARK   85  A    between atoms: _215  and  _216
REMARK   86  A    between atoms: _221  and  _223
REMARK   87  A    between atoms: _223  and  _224
REMARK   88  A    between atoms: _223  and  _226
REMARK   89  A    between atoms: _226  and  _227
REMARK   90  A    between atoms: _230  and  _232
REMARK   91  A    between atoms: _232  and  _233
REMARK   92  A    between atoms: _237  and  _238
REMARK   93  A    between atoms: _243  and  _245
REMARK   94  A    between atoms: _245  and  _246
REMARK   95  A    between atoms: _245  and  _248
REMARK   96  A    between atoms: _248  and  _249
REMARK   97  A    between atoms: _252  and  _254
REMARK   98  A    between atoms: _254  and  _255
REMARK   99  A    between atoms: _254  and  _257
REMARK  100  A    between atoms: _257  and  _258
REMARK  101  A    between atoms: _263  and  _264
REMARK  102  A    between atoms: _266  and  _268
REMARK  103  A    between atoms: _268  and  _269
REMARK  104  A    between atoms: _272  and  _274
REMARK  105  A    between atoms: _274  and  _275
REMARK  106  A    between atoms: _274  and  _277
REMARK  107  A    between atoms: _277  and  _278
REMARK  108  A    between atoms: _278  and  _279
REMARK  109  A    between atoms: _281  and  _283
REMARK  110  A    between atoms: _283  and  _284
REMARK  111  A    between atoms: _283  and  _286
REMARK  112  A    between atoms: _286  and  _287
REMARK  113  A    between atoms: _292  and  _294
REMARK  114  A    between atoms: _294  and  _295
REMARK  115  A    between atoms: _294  and  _297
REMARK  116  A    between atoms: _297  and  _298
REMARK  117  A    between atoms: _298  and  _299
REMARK  118  A    between atoms: _302  and  _304
REMARK  119  A    between atoms: _304  and  _305
REMARK  120  A    between atoms: _304  and  _307
REMARK  121  A    between atoms: _307  and  _308
REMARK  122  A    between atoms: _311  and  _313
REMARK  123  A    between atoms: _313  and  _314
REMARK  124  A    between atoms: _313  and  _316
REMARK  125  A    between atoms: _319  and  _321
REMARK  126  A    between atoms: _321  and  _322
REMARK  127  A    between atoms: _321  and  _324
REMARK  128  A    between atoms: _324  and  _325
REMARK  129  A    between atoms: _325  and  _326
REMARK  130  A    between atoms: _326  and  _327
REMARK  131  A    between atoms: _336  and  _338
REMARK  132  A    between atoms: _338  and  _339
REMARK  133  A    between atoms: _338  and  _341
REMARK  134  A    between atoms: _341  and  _342
REMARK  135  A    between atoms: _344  and  _346
REMARK  136  A    between atoms: _346  and  _347
REMARK  137  A    between atoms: _346  and  _349
REMARK  138  A    between atoms: _349  and  _350
REMARK  139  A    between atoms: _355  and  _356
REMARK  140  A    between atoms: _358  and  _360
REMARK  141  A    between atoms: _360  and  _361
REMARK  142  A    between atoms: _360  and  _363
REMARK  143  A    between atoms: _365  and  _367
REMARK  144  A    between atoms: _367  and  _368
REMARK  145  A    between atoms: _370  and  _372
REMARK  146  A    between atoms: _372  and  _373
REMARK  147  A    between atoms: _372  and  _375
REMARK  148  A    between atoms: _375  and  _376
REMARK  149  A    between atoms: _376  and  _377
REMARK  150  A    between atoms: _379  and  _381
REMARK  151  A    between atoms: _381  and  _382
REMARK  152  A    between atoms: _381  and  _384
REMARK  153  A    between atoms: _384  and  _385
REMARK  154  A    between atoms: _385  and  _386
REMARK  155  A    between atoms: _389  and  _391
REMARK  156  A    between atoms: _391  and  _392
REMARK  157  A    between atoms: _395  and  _397
REMARK  158  A    between atoms: _397  and  _398
REMARK  159  A    between atoms: _397  and  _400
REMARK  160  A    between atoms: _400  and  _401
REMARK  161  A    between atoms: _406  and  _408
REMARK  162  A    between atoms: _408  and  _409
REMARK  163  A    between atoms: _411  and  _413
REMARK  164  A    between atoms: _413  and  _414
REMARK  165  A    between atoms: _416  and  _418
REMARK  166  A    between atoms: _418  and  _419
REMARK  167  A    between atoms: _418  and  _421
REMARK  168  A    between atoms: _421  and  _422
REMARK  169  A    between atoms: _427  and  _428
REMARK  170  A    between atoms: _430  and  _432
REMARK  171  A    between atoms: _432  and  _433
REMARK  172  A    between atoms: _432  and  _435
REMARK  173  A    between atoms: _435  and  _436
REMARK  174  A    between atoms: _439  and  _441
REMARK  175  A    between atoms: _441  and  _442
REMARK  176  A    between atoms: _441  and  _444
REMARK  177  A    between atoms: _444  and  _445
REMARK  178  A    between atoms: _451  and  _453
REMARK  179  A    between atoms: _453  and  _454
REMARK  180  A    between atoms: _453  and  _456
REMARK  181  A    between atoms: _458  and  _460
REMARK  182  A    between atoms: _460  and  _461
REMARK  183  A    between atoms: _463  and  _465
REMARK  184  A    between atoms: _465  and  _466
REMARK  185  A    between atoms: _465  and  _468
REMARK  186  A    between atoms: _468  and  _469
REMARK  187  A    between atoms: _475  and  _477
REMARK  188  A    between atoms: _477  and  _478
REMARK  189  A    between atoms: _477  and  _480
REMARK  190  A    between atoms: _480  and  _481
REMARK  191  A    between atoms: _481  and  _482
REMARK  192  A    between atoms: _487  and  _489
REMARK  193  A    between atoms: _489  and  _490
REMARK  194  A    between atoms: _492  and  _494
REMARK  195  A    between atoms: _494  and  _495
REMARK  196  A    between atoms: _494  and  _497
REMARK  197  A    between atoms: _497  and  _498
REMARK  198  A    between atoms: _498  and  _499
REMARK  199  A    between atoms: _499  and  _500
REMARK  200  A    between atoms: _509  and  _511
REMARK  201  A    between atoms: _511  and  _512
REMARK  202  A    between atoms: _511  and  _514
REMARK  203  A    between atoms: _516  and  _518
REMARK  204  A    between atoms: _518  and  _519
REMARK  205  A    between atoms: _518  and  _521
REMARK  206  A    between atoms: _521  and  _522
REMARK  207  A    between atoms: _527  and  _529
REMARK  208  A    between atoms: _529  and  _530
REMARK  209  A    between atoms: _529  and  _532
REMARK  210  A    between atoms: _532  and  _533
REMARK  211  A    between atoms: _533  and  _534
REMARK  212  A    between atoms: _534  and  _535
REMARK  213  A    between atoms: _535  and  _536
REMARK  214  A    between atoms: _540  and  _542
REMARK  215  A    between atoms: _542  and  _543
REMARK  216  A    between atoms: _542  and  _545
REMARK  217  A    between atoms: _545  and  _546
REMARK  218  A    between atoms: _549  and  _551
REMARK  219  A    between atoms: _551  and  _552
REMARK  220  A    between atoms: _551  and  _554
REMARK  221  A    between atoms: _557  and  _559
REMARK  222  A    between atoms: _559  and  _560
REMARK  223  A    between atoms: _559  and  _562
REMARK  224  A    between atoms: _562  and  _563
REMARK  225  A    between atoms: _563  and  _565
REMARK  226  A    between atoms: _565  and  ZN_690
REMARK  227  A    between atoms: _566  and  _568
REMARK  228  A    between atoms: _568  and  _569
REMARK  229  A    between atoms: _568  and  _571
REMARK  230  A    between atoms: _571  and  _572
REMARK  231  A    between atoms: _572  and  ZN_690
REMARK  232  A    between atoms: _573  and  _575
REMARK  233  A    between atoms: _575  and  _576
REMARK  234  A    between atoms: _575  and  _578
REMARK  235  A    between atoms: _578  and  _579
REMARK  236  A    between atoms: _584  and  _585
REMARK  237  A    between atoms: _587  and  _589
REMARK  238  A    between atoms: _589  and  _590
REMARK  239  A    between atoms: _589  and  _592
REMARK  240  A    between atoms: _592  and  _593
REMARK  241  A    between atoms: _599  and  _601
REMARK  242  A    between atoms: _601  and  _602
REMARK  243  A    between atoms: _601  and  _604
REMARK  244  A    between atoms: _604  and  _605
REMARK  245  A    between atoms: _615  and  _617
REMARK  246  A    between atoms: _617  and  _618
REMARK  247  A    between atoms: _617  and  _620
REMARK  248  A    between atoms: _620  and  _621
REMARK  249  A    between atoms: _621  and  _622
REMARK  250  A    between atoms: _627  and  _629
REMARK  251  A    between atoms: _629  and  _630
REMARK  252  A    between atoms: _629  and  _632
REMARK  253  A    between atoms: _632  and  _633
REMARK  254  A    between atoms: _636  and  _638
REMARK  255  A    between atoms: _638  and  _639
REMARK  256  A    between atoms: _638  and  _641
REMARK  257  A    between atoms: _641  and  _642
REMARK  258  A    between atoms: _642  and  _643
REMARK  259  A    between atoms: _643  and  _644
REMARK  260  A    between atoms: _644  and  _645
REMARK  261  A    between atoms: _649  and  _651
REMARK  262  A    between atoms: _651  and  _652
REMARK  263  A    between atoms: _651  and  _654
REMARK  264  A    between atoms: _654  and  _655
REMARK  265  A    between atoms: _655  and  _656
REMARK  266  A    between atoms: _656  and  _657
REMARK  267  A    between atoms: _657  and  _658
REMARK  268  A    between atoms: _662  and  _664
REMARK  269  A    between atoms: _664  and  _665
REMARK  270  A    between atoms: _664  and  _667
REMARK  271  A    between atoms: _667  and  _668
REMARK  272  A    between atoms: _673  and  _674
REMARK  273  A    between atoms: _676  and  _678
REMARK  274  A    between atoms: _678  and  _679
REMARK  275  A    between atoms: _678  and  _681
REMARK  276  A    between atoms: _681  and  _682
REMARK  277  A    between atoms: _687  and  _688
REMARK                            x       y       z     vdW  Elec       q    Type
REMARK                         _______ _______ _______ _____ _____    ______ ____
ROOT
ATOM      1  CG  TYR A   1     181.599 129.865  20.405  0.00  0.00    -0.020 A 
ATOM      2  CD2 TYR A   1     181.445 130.072  21.789  0.00  0.00    -0.001 A 
ATOM      3  CE2 TYR A   1     180.193 129.947  22.398  0.00  0.00    +0.036 A 
ATOM      4  CZ  TYR A   1     179.087 129.626  21.615  0.00  0.00    +0.134 A 
ATOM      5  CE1 TYR A   1     179.221 129.410  20.254  0.00  0.00    +0.036 A 
ATOM      6  CD1 TYR A   1     180.470 129.518  19.656  0.00  0.00    -0.001 A 
ENDROOT
BRANCH   4   7
ATOM      7  OH  TYR A   1     177.832 129.557  22.171  0.00  0.00    -0.506 OA
ATOM      8  HH  TYR A   1     177.175 129.318  21.470  0.00  0.00    +0.292 HD
ENDBRANCH   4   7
BRANCH   1   9
ATOM      9  CB  TYR A   1     182.921 130.118  19.725  0.00  0.00    +0.051 C 
BRANCH   9  10
ATOM     10  CA  TYR A   1     183.120 131.587  19.303  0.00  0.00    +0.137 C 
BRANCH  10  11
ATOM     11  N   TYR A   1     182.966 132.467  20.442  0.00  0.00    -0.239 NA
ATOM     12  H   TYR A   1     182.517 132.103  21.307  0.00  0.00    +0.142 HD
ENDBRANCH  10  11
BRANCH  10  13
ATOM     13  C   TYR A   1     182.243 131.959  18.103  0.00  0.00    +0.224 C 
ATOM     14  O   TYR A   1     182.583 131.625  16.966  0.00  0.00    -0.287 OA
ENDBRANCH  10  13
ENDBRANCH   9  10
ENDBRANCH   1   9
TORSDOF 5
REMARK  Name = ../refined-set-2016/1o1s/1o1s_pocket.pdb
REMARK  277 active torsions:
REMARK  status: ('A' for Active; 'I' for Inactive)
REMARK    1  A    between atoms: _1  and  _3
REMARK    2  A    between atoms: _3  and  _4
REMARK    3  A    between atoms: _7  and  _9
REMARK    4  A    between atoms: _9  and  _10
REMARK    5  A    between atoms: _9  and  _12
REMARK    6  A    between atoms: _12  and  _13
REMARK    7  A    between atoms: _18  and  _19
REMARK    8  A    between atoms: _21  and  _23
REMARK    9  A    between atoms: _23  and  _24
REMARK   10  A    between atoms: _23  and  _26
REMARK   11  A    between atoms: _26  and  _27
REMARK   12  A    between atoms: _27  and  _28
REMARK   13  A    between atoms: _28  and  _29
REMARK   14  A    between atoms: _29  and  _30
REMARK   15  A    between atoms: _34  and  _36
REMARK   16  A    between atoms: _36  and  _37
REMARK   17  A    between atoms: _36  and  _39
REMARK   18  A    between atoms: _39  and  _40
REMARK   19  A    between atoms: _45  and  _47
REMARK   20  A    between atoms: _47  and  _48
REMARK   21  A    between atoms: _47  and  _50
REMARK   22  A    between atoms: _50  and  _51
REMARK   23  A    between atoms: _56  and  _57
REMARK   24  A    between atoms: _59  and  _61
REMARK   25  A    between atoms: _61  and  _62
REMARK   26  A    between atoms: _61  and  _64
REMARK   27  A    between atoms: _64  and  _65
REMARK   28  A    between atoms: _65  and  _66
REMARK   29  A    between atoms: _71  and  _73
REMARK   30  A    between atoms: _73  and  _74
REMARK   31  A    between atoms: _73  and  _76
REMARK   32  A    between atoms: _76  and  _77
REMARK   33  A    between atoms: _80  and  _82
REMARK   34  A    between atoms: _82  and  _83
REMARK   35  A    between atoms: _82  and  _85
REMARK   36  A    between atoms: _85  and  _86
REMARK   37  A    between atoms: _86  and  _87
REMARK   38  A    between atoms: _87  and  _88
REMARK   39  A    between atoms: _88  and  _89
REMARK   40  A    between atoms: _93  and  _95
REMARK   41  A    between atoms: _95  and  _96
REMARK   42  A    between atoms: _95  and  _98
REMARK   43  A    between atoms: _98  and  _99
REMARK   44  A    between atoms: _104  and  _106
REMARK   45  A    between atoms: _106  and  _107
REMARK   46  A    between atoms: _106  and  _109
REMARK   47  A    between atoms: _109  and  _110
REMARK   48  A    between atoms: _115  and  _116
REMARK   49  A    between atoms: _118  and  _120
REMARK   50  A    between atoms: _120  and  _121
REMARK   51  A    between atoms: _120  and  _123
REMARK   52  A    between atoms: _123  and  _124
REMARK   53  A    between atoms: _129  and  _131
REMARK   54  A    between atoms: _131  and  _132
REMARK   55  A    between atoms: _135  and  _137
REMARK   56  A    between atoms: _137  and  _138
REMARK   57  A    between atoms: _137  and  _140
REMARK   58  A    between atoms: _140  and  _141
REMARK   59  A    between atoms: _141  and  _142
REMARK   60  A    between atoms: _147  and  _149
REMARK   61  A    between atoms: _149  and  _150
REMARK   62  A    between atoms: _149  and  _152
REMARK   63  A    between atoms: _152  and  _153
REMARK   64  A    between atoms: _155  and  _157
REMARK   65  A    between atoms: _157  and  _158
REMARK   66  A    between atoms: _157  and  _160
REMARK   67  A    between atoms: _160  and  _161
REMARK   68  A    between atoms: _164  and  _166
REMARK   69  A    between atoms: _166  and  _167
REMARK   70  A    between atoms: _170  and  _172
REMARK   71  A    between atoms: _172  and  _173
REMARK   72  A    between atoms: _172  and  _175
REMARK   73  A    between atoms: _175  and  _176
REMARK   74  A    between atoms: _178  and  _180
REMARK   75  A    between atoms: _180  and  _181
REMARK   76  A    between atoms: _180  and  _183
REMARK   77  A    between atoms: _183  and  _184
REMARK   78  A    between atoms: _194  and  _196
REMARK   79  A    between atoms: _196  and  _197
REMARK   80  A    between atoms: _196  and  _199
REMARK   81  A    between atoms: _199  and  _200
REMARK   82  A    between atoms: _210  and  _212
REMARK   83  A    between atoms: _212  and  _213
REMARK   84  A    between atoms: _212  and  _215
REMARK   85  A    between atoms: _215  and  _216
REMARK   86  A    between atoms: _221  and  _223
REMARK   87  A    between atoms: _223  and  _224
REMARK   88  A    between atoms: _223  and  _226
REMARK   89  A    between atoms: _226  and  _227
REMARK   90  A    between atoms: _230  and  _232
REMARK   91  A    between atoms: _232  and  _233
REMARK   92  A    between atoms: _237  and  _238
REMARK   93  A    between atoms: _243  and  _245
REMARK   94  A    between atoms: _245  and  _246
REMARK   95  A    between atoms: _245  and  _248
REMARK   96  A    between atoms: _248  and  _249
REMARK   97  A    between atoms: _252  and  _254
REMARK   98  A    between atoms: _254  and  _255
REMARK   99  A    between atoms: _254  and  _257
REMARK  100  A    between atoms: _257  and  _258
REMARK  101  A    between atoms: _263  and  _264
REMARK  102  A    between atoms: _266  and  _268
REMARK  103  A    between atoms: _268  and  _269
REMARK  104  A    between atoms: _272  and  _274
REMARK  105  A    between atoms: _274  and  _275
REMARK  106  A    between atoms: _274  and  _277
REMARK  107  A    between atoms: _277  and  _278
REMARK  108  A    between atoms: _278  and  _279
REMARK  109  A    between atoms: _281  and  _283
REMARK  110  A    between atoms: _283  and  _284
REMARK  111  A    between atoms: _283  and  _286
REMARK  112  A    between atoms: _286  and  _287
REMARK  113  A    between atoms: _292  and  _294
REMARK  114  A    between atoms: _294  and  _295
REMARK  115  A    between atoms: _294  and  _297
REMARK  116  A    between atoms: _297  and  _298
REMARK  117  A    between atoms: _298  and  _299
REMARK  118  A    between atoms: _302  and  _304
REMARK  119  A    between atoms: _304  and  _305
REMARK  120  A    between atoms: _304  and  _307
REMARK  121  A    between atoms: _307  and  _308
REMARK  122  A    between atoms: _311  and  _313
REMARK  123  A    between atoms: _313  and  _314
REMARK  124  A    between atoms: _313  and  _316
REMARK  125  A    between atoms: _319  and  _321
REMARK  126  A    between atoms: _321  and  _322
REMARK  127  A    between atoms: _321  and  _324
REMARK  128  A    between atoms: _324  and  _325
REMARK  129  A    between atoms: _325  and  _326
REMARK  130  A    between atoms: _326  and  _327
REMARK  131  A    between atoms: _336  and  _338
REMARK  132  A    between atoms: _338  and  _339
REMARK  133  A    between atoms: _338  and  _341
REMARK  134  A    between atoms: _341  and  _342
REMARK  135  A    between atoms: _344  and  _346
REMARK  136  A    between atoms: _346  and  _347
REMARK  137  A    between atoms: _346  and  _349
REMARK  138  A    between atoms: _349  and  _350
REMARK  139  A    between atoms: _355  and  _356
REMARK  140  A    between atoms: _358  and  _360
REMARK  141  A    between atoms: _360  and  _361
REMARK  142  A    between atoms: _360  and  _363
REMARK  143  A    between atoms: _365  and  _367
REMARK  144  A    between atoms: _367  and  _368
REMARK  145  A    between atoms: _370  and  _372
REMARK  146  A    between atoms: _372  and  _373
REMARK  147  A    between atoms: _372  and  _375
REMARK  148  A    between atoms: _375  and  _376
REMARK  149  A    between atoms: _376  and  _377
REMARK  150  A    between atoms: _379  and  _381
REMARK  151  A    between atoms: _381  and  _382
REMARK  152  A    between atoms: _381  and  _384
REMARK  153  A    between atoms: _384  and  _385
REMARK  154  A    between atoms: _385  and  _386
REMARK  155  A    between atoms: _389  and  _391
REMARK  156  A    between atoms: _391  and  _392
REMARK  157  A    between atoms: _395  and  _397
REMARK  158  A    between atoms: _397  and  _398
REMARK  159  A    between atoms: _397  and  _400
REMARK  160  A    between atoms: _400  and  _401
REMARK  161  A    between atoms: _406  and  _408
REMARK  162  A    between atoms: _408  and  _409
REMARK  163  A    between atoms: _411  and  _413
REMARK  164  A    between atoms: _413  and  _414
REMARK  165  A    between atoms: _416  and  _418
REMARK  166  A    between atoms: _418  and  _419
REMARK  167  A    between atoms: _418  and  _421
REMARK  168  A    between atoms: _421  and  _422
REMARK  169  A    between atoms: _427  and  _428
REMARK  170  A    between atoms: _430  and  _432
REMARK  171  A    between atoms: _432  and  _433
REMARK  172  A    between atoms: _432  and  _435
REMARK  173  A    between atoms: _435  and  _436
REMARK  174  A    between atoms: _439  and  _441
REMARK  175  A    between atoms: _441  and  _442
REMARK  176  A    between atoms: _441  and  _444
REMARK  177  A    between atoms: _444  and  _445
REMARK  178  A    between atoms: _451  and  _453
REMARK  179  A    between atoms: _453  and  _454
REMARK  180  A    between atoms: _453  and  _456
REMARK  181  A    between atoms: _458  and  _460
REMARK  182  A    between atoms: _460  and  _461
REMARK  183  A    between atoms: _463  and  _465
REMARK  184  A    between atoms: _465  and  _466
REMARK  185  A    between atoms: _465  and  _468
REMARK  186  A    between atoms: _468  and  _469
REMARK  187  A    between atoms: _475  and  _477
REMARK  188  A    between atoms: _477  and  _478
REMARK  189  A    between atoms: _477  and  _480
REMARK  190  A    between atoms: _480  and  _481
REMARK  191  A    between atoms: _481  and  _482
REMARK  192  A    between atoms: _487  and  _489
REMARK  193  A    between atoms: _489  and  _490
REMARK  194  A    between atoms: _492  and  _494
REMARK  195  A    between atoms: _494  and  _495
REMARK  196  A    between atoms: _494  and  _497
REMARK  197  A    between atoms: _497  and  _498
REMARK  198  A    between atoms: _498  and  _499
REMARK  199  A    between atoms: _499  and  _500
REMARK  200  A    between atoms: _509  and  _511
REMARK  201  A    between atoms: _511  and  _512
REMARK  202  A    between atoms: _511  and  _514
REMARK  203  A    between atoms: _516  and  _518
REMARK  204  A    between atoms: _518  and  _519
REMARK  205  A    between atoms: _518  and  _521
REMARK  206  A    between atoms: _521  and  _522
REMARK  207  A    between atoms: _527  and  _529
REMARK  208  A    between atoms: _529  and  _530
REMARK  209  A    between atoms: _529  and  _532
REMARK  210  A    between atoms: _532  and  _533
REMARK  211  A    between atoms: _533  and  _534
REMARK  212  A    between atoms: _534  and  _535
REMARK  213  A    between atoms: _535  and  _536
REMARK  214  A    between atoms: _540  and  _542
REMARK  215  A    between atoms: _542  and  _543
REMARK  216  A    between atoms: _542  and  _545
REMARK  217  A    between atoms: _545  and  _546
REMARK  218  A    between atoms: _549  and  _551
REMARK  219  A    between atoms: _551  and  _552
REMARK  220  A    between atoms: _551  and  _554
REMARK  221  A    between atoms: _557  and  _559
REMARK  222  A    between atoms: _559  and  _560
REMARK  223  A    between atoms: _559  and  _562
REMARK  224  A    between atoms: _562  and  _563
REMARK  225  A    between atoms: _563  and  _565
REMARK  226  A    between atoms: _565  and  ZN_690
REMARK  227  A    between atoms: _566  and  _568
REMARK  228  A    between atoms: _568  and  _569
REMARK  229  A    between atoms: _568  and  _571
REMARK  230  A    between atoms: _571  and  _572
REMARK  231  A    between atoms: _572  and  ZN_690
REMARK  232  A    between atoms: _573  and  _575
REMARK  233  A    between atoms: _575  and  _576
REMARK  234  A    between atoms: _575  and  _578
REMARK  235  A    between atoms: _578  and  _579
REMARK  236  A    between atoms: _584  and  _585
REMARK  237  A    between atoms: _587  and  _589
REMARK  238  A    between atoms: _589  and  _590
REMARK  239  A    between atoms: _589  and  _592
REMARK  240  A    between atoms: _592  and  _593
REMARK  241  A    between atoms: _599  and  _601
REMARK  242  A    between atoms: _601  and  _602
REMARK  243  A    between atoms: _601  and  _604
REMARK  244  A    between atoms: _604  and  _605
REMARK  245  A    between atoms: _615  and  _617
REMARK  246  A    between atoms: _617  and  _618
REMARK  247  A    between atoms: _617  and  _620
REMARK  248  A    between atoms: _620  and  _621
REMARK  249  A    between atoms: _621  and  _622
REMARK  250  A    between atoms: _627  and  _629
REMARK  251  A    between atoms: _629  and  _630
REMARK  252  A    between atoms: _629  and  _632
REMARK  253  A    between atoms: _632  and  _633
REMARK  254  A    between atoms: _636  and  _638
REMARK  255  A    between atoms: _638  and  _639
REMARK  256  A    between atoms: _638  and  _641
REMARK  257  A    between atoms: _641  and  _642
REMARK  258  A    between atoms: _642  and  _643
REMARK  259  A    between atoms: _643  and  _644
REMARK  260  A    between atoms: _644  and  _645
REMARK  261  A    between atoms: _649  and  _651
REMARK  262  A    between atoms: _651  and  _652
REMARK  263  A    between atoms: _651  and  _654
REMARK  264  A    between atoms: _654  and  _655
REMARK  265  A    between atoms: _655  and  _656
REMARK  266  A    between atoms: _656  and  _657
REMARK  267  A    between atoms: _657  and  _658
REMARK  268  A    between atoms: _662  and  _664
REMARK  269  A    between atoms: _664  and  _665
REMARK  270  A    between atoms: _664  and  _667
REMARK  271  A    between atoms: _667  and  _668
REMARK  272  A    between atoms: _673  and  _674
REMARK  273  A    between atoms: _676  and  _678
REMARK  274  A    between atoms: _678  and  _679
REMARK  275  A    between atoms: _678  and  _681
REMARK  276  A    between atoms: _681  and  _682
REMARK  277  A    between atoms: _687  and  _688
REMARK                            x       y       z     vdW  Elec       q    Type
REMARK                         _______ _______ _______ _____ _____    ______ ____
ROOT
ATOM      1  C   ASN A   2     192.391 129.811  23.932  0.00  0.00    +0.241 C 
ATOM      2  N   TYR A   3     191.267 129.089  23.926  0.00  0.00    -0.297 N 
ATOM      3  H   TYR A   3     190.520 129.323  24.611  0.00  0.00    +0.150 HD
ATOM      4  O   ASN A   2     193.356 129.563  23.206  0.00  0.00    -0.273 OA
ENDROOT
BRANCH   1   5
ATOM      5  CA  ASN A   2     192.486 130.944  24.964  0.00  0.00    +0.158 C 
BRANCH   5   8
ATOM      6  C   LYS A   1     194.081 130.265  26.672  0.00  0.00    +0.238 C 
ATOM      7  O   LYS A   1     193.256 129.577  27.267  0.00  0.00    -0.274 OA
ATOM      8  N   ASN A   2     193.808 130.915  25.553  0.00  0.00    -0.297 N 
ATOM      9  H   ASN A   2     194.577 131.428  25.075  0.00  0.00    +0.150 HD
BRANCH   6  10
ATOM     10  CA  LYS A   1     195.520 130.333  27.128  0.00  0.00    +0.145 C 
BRANCH  10  11
ATOM     11  N   LYS A   1     196.305 131.333  26.430  0.00  0.00    -0.238 NA
ATOM     12  H   LYS A   1     196.196 132.337  26.680  0.00  0.00    +0.142 HD
ENDBRANCH  10  11
BRANCH  10  13
ATOM     13  CB  LYS A   1     195.627 130.543  28.636  0.00  0.00    +0.026 C 
BRANCH  13  14
ATOM     14  CG  LYS A   1     196.985 130.129  29.193  0.00  0.00    -0.000 C 
BRANCH  14  15
ATOM     15  CD  LYS A   1     196.938 129.857  30.673  0.00  0.00    -0.024 C 
BRANCH  15  16
ATOM     16  CE  LYS A   1     198.238 129.246  31.097  0.00  0.00    -0.086 C 
BRANCH  16  17
ATOM     17  NZ  LYS A   1     198.195 128.865  32.520  0.00  0.00    +0.380 N 
ATOM     18  HZ1 LYS A   1     198.016 129.710  33.099  0.00  0.00    -0.089 HD
ATOM     19  HZ2 LYS A   1     199.106 128.444  32.793  0.00  0.00    -0.089 HD
ATOM     20  HZ3 LYS A   1     197.433 128.173  32.669  0.00  0.00    -0.089 HD
ENDBRANCH  16  17
ENDBRANCH  15  16
ENDBRANCH  14  15
ENDBRANCH  13  14
ENDBRANCH  10  13
ENDBRANCH   6  10
ENDBRANCH   5   8
BRANCH   5  21
ATOM     21  CB  ASN A   2     192.305 132.317  24.321  0.00  0.00    +0.114 C 
BRANCH  21  22
ATOM     22  CG  ASN A   2     190.978 132.468  23.651  0.00  0.00    +0.222 C 
ATOM     23  ND2 ASN A   2     189.967 132.873  24.408  0.00  0.00    -0.329 N 
ATOM     24 HD21 ASN A   2     190.118 133.064  25.419  0.00  0.00    +0.145 HD
ATOM     25 HD22 ASN A   2     189.023 133.000  23.990  0.00  0.00    +0.145 HD
ATOM     26  OD1 ASN A   2     190.859 132.230  22.461  0.00  0.00    -0.275 OA
ENDBRANCH  21  22
ENDBRANCH   5  21
ENDBRANCH   1   5
BRANCH   2  27
ATOM     27  CA  TYR A   3     191.042 127.976  22.990  0.00  0.00    +0.153 C 
BRANCH  27  28
ATOM     28  C   TYR A   3     190.807 128.461  21.560  0.00  0.00    +0.241 C 
ATOM     29  N   GLN A   4     189.902 129.430  21.408  0.00  0.00    -0.298 N 
ATOM     30  H   GLN A   4     189.426 129.806  22.253  0.00  0.00    +0.150 HD
ATOM     31  O   TYR A   3     191.383 127.919  20.613  0.00  0.00    -0.273 OA
BRANCH  29  32
ATOM     32  CA  GLN A   4     189.554 129.983  20.101  0.00  0.00    +0.137 C 
BRANCH  32  33
ATOM     33  C   GLN A   4     190.717 130.461  19.269  0.00  0.00    +0.227 C 
ATOM     34  O   GLN A   4     190.776 130.170  18.083  0.00  0.00    -0.286 OA
ENDBRANCH  32  33
BRANCH  32  35
ATOM     35  CB  GLN A   4     188.554 131.127  20.229  0.00  0.00    +0.037 C 
BRANCH  35  36
ATOM     36  CG  GLN A   4     187.145 130.710  20.010  0.00  0.00    +0.087 C 
BRANCH  36  37
ATOM     37  CD  GLN A   4     186.628 130.025  21.205  0.00  0.00    +0.219 C 
ATOM     38  OE1 GLN A   4     187.156 130.206  22.313  0.00  0.00    -0.275 OA
ATOM     39  NE2 GLN A   4     185.596 129.214  21.022  0.00  0.00    -0.329 N 
ATOM     40 HE21 GLN A   4     185.193 128.695  21.828  0.00  0.00    +0.145 HD
ATOM     41 HE22 GLN A   4     185.189 129.097  20.072  0.00  0.00    +0.145 HD
ENDBRANCH  36  37
ENDBRANCH  35  36
ENDBRANCH  32  35
ENDBRANCH  29  32
ENDBRANCH  27  28
BRANCH  27  42
ATOM     42  CB  TYR A   3     189.810 127.124  23.370  0.00  0.00    +0.055 C 
BRANCH  42  43
ATOM     43  CG  TYR A   3     189.964 126.074  24.474  0.00  0.00    -0.020 A 
ATOM     44  CD2 TYR A   3     189.750 126.409  25.826  0.00  0.00    -0.001 A 
ATOM     45  CE2 TYR A   3     189.775 125.435  26.837  0.00  0.00    +0.036 A 
ATOM     46  CZ  TYR A   3     190.019 124.107  26.513  0.00  0.00    +0.134 A 
ATOM     47  CE1 TYR A   3     190.249 123.733  25.180  0.00  0.00    +0.036 A 
ATOM     48  CD1 TYR A   3     190.220 124.719  24.165  0.00  0.00    -0.001 A 
BRANCH  46  49
ATOM     49  OH  TYR A   3     189.988 123.167  27.522  0.00  0.00    -0.506 OA
ATOM     50  HH  TYR A   3     190.859 122.699  27.562  0.00  0.00    +0.292 HD
ENDBRANCH  46  49
ENDBRANCH  42  43
ENDBRANCH  27  42
ENDBRANCH   2  27
TORSDOF 21
REMARK  Name = ../refined-set-2016/1o1s/1o1s_pocket.pdb
REMARK  277 active torsions:
REMARK  status: ('A' for Active; 'I' for Inactive)
REMARK    1  A    between atoms: _1  and  _3
REMARK    2  A    between atoms: _3  and  _4
REMARK    3  A    between atoms: _7  and  _9
REMARK    4  A    between atoms: _9  and  _10
REMARK    5  A    between atoms: _9  and  _12
REMARK    6  A    between atoms: _12  and  _13
REMARK    7  A    between atoms: _18  and  _19
REMARK    8  A    between atoms: _21  and  _23
REMARK    9  A    between atoms: _23  and  _24
REMARK   10  A    between atoms: _23  and  _26
REMARK   11  A    between atoms: _26  and  _27
REMARK   12  A    between atoms: _27  and  _28
REMARK   13  A    between atoms: _28  and  _29
REMARK   14  A    between atoms: _29  and  _30
REMARK   15  A    between atoms: _34  and  _36
REMARK   16  A    between atoms: _36  and  _37
REMARK   17  A    between atoms: _36  and  _39
REMARK   18  A    between atoms: _39  and  _40
REMARK   19  A    between atoms: _45  and  _47
REMARK   20  A    between atoms: _47  and  _48
REMARK   21  A    between atoms: _47  and  _50
REMARK   22  A    between atoms: _50  and  _51
REMARK   23  A    between atoms: _56  and  _57
REMARK   24  A    between atoms: _59  and  _61
REMARK   25  A    between atoms: _61  and  _62
REMARK   26  A    between atoms: _61  and  _64
REMARK   27  A    between atoms: _64  and  _65
REMARK   28  A    between atoms: _65  and  _66
REMARK   29  A    between atoms: _71  and  _73
REMARK   30  A    between atoms: _73  and  _74
REMARK   31  A    between atoms: _73  and  _76
REMARK   32  A    between atoms: _76  and  _77
REMARK   33  A    between atoms: _80  and  _82
REMARK   34  A    between atoms: _82  and  _83
REMARK   35  A    between atoms: _82  and  _85
REMARK   36  A    between atoms: _85  and  _86
REMARK   37  A    between atoms: _86  and  _87
REMARK   38  A    between atoms: _87  and  _88
REMARK   39  A    between atoms: _88  and  _89
REMARK   40  A    between atoms: _93  and  _95
REMARK   41  A    between atoms: _95  and  _96
REMARK   42  A    between atoms: _95  and  _98
REMARK   43  A    between atoms: _98  and  _99
REMARK   44  A    between atoms: _104  and  _106
REMARK   45  A    between atoms: _106  and  _107
REMARK   46  A    between atoms: _106  and  _109
REMARK   47  A    between atoms: _109  and  _110
REMARK   48  A    between atoms: _115  and  _116
REMARK   49  A    between atoms: _118  and  _120
REMARK   50  A    between atoms: _120  and  _121
REMARK   51  A    between atoms: _120  and  _123
REMARK   52  A    between atoms: _123  and  _124
REMARK   53  A    between atoms: _129  and  _131
REMARK   54  A    between atoms: _131  and  _132
REMARK   55  A    between atoms: _135  and  _137
REMARK   56  A    between atoms: _137  and  _138
REMARK   57  A    between atoms: _137  and  _140
REMARK   58  A    between atoms: _140  and  _141
REMARK   59  A    between atoms: _141  and  _142
REMARK   60  A    between atoms: _147  and  _149
REMARK   61  A    between atoms: _149  and  _150
REMARK   62  A    between atoms: _149  and  _152
REMARK   63  A    between atoms: _152  and  _153
REMARK   64  A    between atoms: _155  and  _157
REMARK   65  A    between atoms: _157  and  _158
REMARK   66  A    between atoms: _157  and  _160
REMARK   67  A    between atoms: _160  and  _161
REMARK   68  A    between atoms: _164  and  _166
REMARK   69  A    between atoms: _166  and  _167
REMARK   70  A    between atoms: _170  and  _172
REMARK   71  A    between atoms: _172  and  _173
REMARK   72  A    between atoms: _172  and  _175
REMARK   73  A    between atoms: _175  and  _176
REMARK   74  A    between atoms: _178  and  _180
REMARK   75  A    between atoms: _180  and  _181
REMARK   76  A    between atoms: _180  and  _183
REMARK   77  A    between atoms: _183  and  _184
REMARK   78  A    between atoms: _194  and  _196
REMARK   79  A    between atoms: _196  and  _197
REMARK   80  A    between atoms: _196  and  _199
REMARK   81  A    between atoms: _199  and  _200
REMARK   82  A    between atoms: _210  and  _212
REMARK   83  A    between atoms: _212  and  _213
REMARK   84  A    between atoms: _212  and  _215
REMARK   85  A    between atoms: _215  and  _216
REMARK   86  A    between atoms: _221  and  _223
REMARK   87  A    between atoms: _223  and  _224
REMARK   88  A    between atoms: _223  and  _226
REMARK   89  A    between atoms: _226  and  _227
REMARK   90  A    between atoms: _230  and  _232
REMARK   91  A    between atoms: _232  and  _233
REMARK   92  A    between atoms: _237  and  _238
REMARK   93  A    between atoms: _243  and  _245
REMARK   94  A    between atoms: _245  and  _246
REMARK   95  A    between atoms: _245  and  _248
REMARK   96  A    between atoms: _248  and  _249
REMARK   97  A    between atoms: _252  and  _254
REMARK   98  A    between atoms: _254  and  _255
REMARK   99  A    between atoms: _254  and  _257
REMARK  100  A    between atoms: _257  and  _258
REMARK  101  A    between atoms: _263  and  _264
REMARK  102  A    between atoms: _266  and  _268
REMARK  103  A    between atoms: _268  and  _269
REMARK  104  A    between atoms: _272  and  _274
REMARK  105  A    between atoms: _274  and  _275
REMARK  106  A    between atoms: _274  and  _277
REMARK  107  A    between atoms: _277  and  _278
REMARK  108  A    between atoms: _278  and  _279
REMARK  109  A    between atoms: _281  and  _283
REMARK  110  A    between atoms: _283  and  _284
REMARK  111  A    between atoms: _283  and  _286
REMARK  112  A    between atoms: _286  and  _287
REMARK  113  A    between atoms: _292  and  _294
REMARK  114  A    between atoms: _294  and  _295
REMARK  115  A    between atoms: _294  and  _297
REMARK  116  A    between atoms: _297  and  _298
REMARK  117  A    between atoms: _298  and  _299
REMARK  118  A    between atoms: _302  and  _304
REMARK  119  A    between atoms: _304  and  _305
REMARK  120  A    between atoms: _304  and  _307
REMARK  121  A    between atoms: _307  and  _308
REMARK  122  A    between atoms: _311  and  _313
REMARK  123  A    between atoms: _313  and  _314
REMARK  124  A    between atoms: _313  and  _316
REMARK  125  A    between atoms: _319  and  _321
REMARK  126  A    between atoms: _321  and  _322
REMARK  127  A    between atoms: _321  and  _324
REMARK  128  A    between atoms: _324  and  _325
REMARK  129  A    between atoms: _325  and  _326
REMARK  130  A    between atoms: _326  and  _327
REMARK  131  A    between atoms: _336  and  _338
REMARK  132  A    between atoms: _338  and  _339
REMARK  133  A    between atoms: _338  and  _341
REMARK  134  A    between atoms: _341  and  _342
REMARK  135  A    between atoms: _344  and  _346
REMARK  136  A    between atoms: _346  and  _347
REMARK  137  A    between atoms: _346  and  _349
REMARK  138  A    between atoms: _349  and  _350
REMARK  139  A    between atoms: _355  and  _356
REMARK  140  A    between atoms: _358  and  _360
REMARK  141  A    between atoms: _360  and  _361
REMARK  142  A    between atoms: _360  and  _363
REMARK  143  A    between atoms: _365  and  _367
REMARK  144  A    between atoms: _367  and  _368
REMARK  145  A    between atoms: _370  and  _372
REMARK  146  A    between atoms: _372  and  _373
REMARK  147  A    between atoms: _372  and  _375
REMARK  148  A    between atoms: _375  and  _376
REMARK  149  A    between atoms: _376  and  _377
REMARK  150  A    between atoms: _379  and  _381
REMARK  151  A    between atoms: _381  and  _382
REMARK  152  A    between atoms: _381  and  _384
REMARK  153  A    between atoms: _384  and  _385
REMARK  154  A    between atoms: _385  and  _386
REMARK  155  A    between atoms: _389  and  _391
REMARK  156  A    between atoms: _391  and  _392
REMARK  157  A    between atoms: _395  and  _397
REMARK  158  A    between atoms: _397  and  _398
REMARK  159  A    between atoms: _397  and  _400
REMARK  160  A    between atoms: _400  and  _401
REMARK  161  A    between atoms: _406  and  _408
REMARK  162  A    between atoms: _408  and  _409
REMARK  163  A    between atoms: _411  and  _413
REMARK  164  A    between atoms: _413  and  _414
REMARK  165  A    between atoms: _416  and  _418
REMARK  166  A    between atoms: _418  and  _419
REMARK  167  A    between atoms: _418  and  _421
REMARK  168  A    between atoms: _421  and  _422
REMARK  169  A    between atoms: _427  and  _428
REMARK  170  A    between atoms: _430  and  _432
REMARK  171  A    between atoms: _432  and  _433
REMARK  172  A    between atoms: _432  and  _435
REMARK  173  A    between atoms: _435  and  _436
REMARK  174  A    between atoms: _439  and  _441
REMARK  175  A    between atoms: _441  and  _442
REMARK  176  A    between atoms: _441  and  _444
REMARK  177  A    between atoms: _444  and  _445
REMARK  178  A    between atoms: _451  and  _453
REMARK  179  A    between atoms: _453  and  _454
REMARK  180  A    between atoms: _453  and  _456
REMARK  181  A    between atoms: _458  and  _460
REMARK  182  A    between atoms: _460  and  _461
REMARK  183  A    between atoms: _463  and  _465
REMARK  184  A    between atoms: _465  and  _466
REMARK  185  A    between atoms: _465  and  _468
REMARK  186  A    between atoms: _468  and  _469
REMARK  187  A    between atoms: _475  and  _477
REMARK  188  A    between atoms: _477  and  _478
REMARK  189  A    between atoms: _477  and  _480
REMARK  190  A    between atoms: _480  and  _481
REMARK  191  A    between atoms: _481  and  _482
REMARK  192  A    between atoms: _487  and  _489
REMARK  193  A    between atoms: _489  and  _490
REMARK  194  A    between atoms: _492  and  _494
REMARK  195  A    between atoms: _494  and  _495
REMARK  196  A    between atoms: _494  and  _497
REMARK  197  A    between atoms: _497  and  _498
REMARK  198  A    between atoms: _498  and  _499
REMARK  199  A    between atoms: _499  and  _500
REMARK  200  A    between atoms: _509  and  _511
REMARK  201  A    between atoms: _511  and  _512
REMARK  202  A    between atoms: _511  and  _514
REMARK  203  A    between atoms: _516  and  _518
REMARK  204  A    between atoms: _518  and  _519
REMARK  205  A    between atoms: _518  and  _521
REMARK  206  A    between atoms: _521  and  _522
REMARK  207  A    between atoms: _527  and  _529
REMARK  208  A    between atoms: _529  and  _530
REMARK  209  A    between atoms: _529  and  _532
REMARK  210  A    between atoms: _532  and  _533
REMARK  211  A    between atoms: _533  and  _534
REMARK  212  A    between atoms: _534  and  _535
REMARK  213  A    between atoms: _535  and  _536
REMARK  214  A    between atoms: _540  and  _542
REMARK  215  A    between atoms: _542  and  _543
REMARK  216  A    between atoms: _542  and  _545
REMARK  217  A    between atoms: _545  and  _546
REMARK  218  A    between atoms: _549  and  _551
REMARK  219  A    between atoms: _551  and  _552
REMARK  220  A    between atoms: _551  and  _554
REMARK  221  A    between atoms: _557  and  _559
REMARK  222  A    between atoms: _559  and  _560
REMARK  223  A    between atoms: _559  and  _562
REMARK  224  A    between atoms: _562  and  _563
REMARK  225  A    between atoms: _563  and  _565
REMARK  226  A    between atoms: _565  and  ZN_690
REMARK  227  A    between atoms: _566  and  _568
REMARK  228  A    between atoms: _568  and  _569
REMARK  229  A    between atoms: _568  and  _571
REMARK  230  A    between atoms: _571  and  _572
REMARK  231  A    between atoms: _572  and  ZN_690
REMARK  232  A    between atoms: _573  and  _575
REMARK  233  A    between atoms: _575  and  _576
REMARK  234  A    between atoms: _575  and  _578
REMARK  235  A    between atoms: _578  and  _579
REMARK  236  A    between atoms: _584  and  _585
REMARK  237  A    between atoms: _587  and  _589
REMARK  238  A    between atoms: _589  and  _590
REMARK  239  A    between atoms: _589  and  _592
REMARK  240  A    between atoms: _592  and  _593
REMARK  241  A    between atoms: _599  and  _601
REMARK  242  A    between atoms: _601  and  _602
REMARK  243  A    between atoms: _601  and  _604
REMARK  244  A    between atoms: _604  and  _605
REMARK  245  A    between atoms: _615  and  _617
REMARK  246  A    between atoms: _617  and  _618
REMARK  247  A    between atoms: _617  and  _620
REMARK  248  A    between atoms: _620  and  _621
REMARK  249  A    between atoms: _621  and  _622
REMARK  250  A    between atoms: _627  and  _629
REMARK  251  A    between atoms: _629  and  _630
REMARK  252  A    between atoms: _629  and  _632
REMARK  253  A    between atoms: _632  and  _633
REMARK  254  A    between atoms: _636  and  _638
REMARK  255  A    between atoms: _638  and  _639
REMARK  256  A    between atoms: _638  and  _641
REMARK  257  A    between atoms: _641  and  _642
REMARK  258  A    between atoms: _642  and  _643
REMARK  259  A    between atoms: _643  and  _644
REMARK  260  A    between atoms: _644  and  _645
REMARK  261  A    between atoms: _649  and  _651
REMARK  262  A    between atoms: _651  and  _652
REMARK  263  A    between atoms: _651  and  _654
REMARK  264  A    between atoms: _654  and  _655
REMARK  265  A    between atoms: _655  and  _656
REMARK  266  A    between atoms: _656  and  _657
REMARK  267  A    between atoms: _657  and  _658
REMARK  268  A    between atoms: _662  and  _664
REMARK  269  A    between atoms: _664  and  _665
REMARK  270  A    between atoms: _664  and  _667
REMARK  271  A    between atoms: _667  and  _668
REMARK  272  A    between atoms: _673  and  _674
REMARK  273  A    between atoms: _676  and  _678
REMARK  274  A    between atoms: _678  and  _679
REMARK  275  A    between atoms: _678  and  _681
REMARK  276  A    between atoms: _681  and  _682
REMARK  277  A    between atoms: _687  and  _688
REMARK                            x       y       z     vdW  Elec       q    Type
REMARK                         _______ _______ _______ _____ _____    ______ ____
ROOT
ATOM      1  CA  ASP A   1     205.120 129.212  29.438  0.00  0.00    +0.144 C 
ENDROOT
BRANCH   1   2
ATOM      2  N   ASP A   1     205.820 130.126  28.525  0.00  0.00    -0.239 NA
ATOM      3  H   ASP A   1     205.862 129.873  27.517  0.00  0.00    +0.142 HD
ENDBRANCH   1   2
BRANCH   1   4
ATOM      4  C   ASP A   1     205.347 127.826  28.865  0.00  0.00    +0.225 C 
ATOM      5  O   ASP A   1     204.584 127.363  28.021  0.00  0.00    -0.287 OA
ENDBRANCH   1   4
BRANCH   1   6
ATOM      6  CB  ASP A   1     203.628 129.506  29.476  0.00  0.00    +0.139 C 
BRANCH   6   7
ATOM      7  CG  ASP A   1     202.865 128.556  30.376  0.00  0.00    +0.367 C 
ATOM      8  OD2 ASP A   1     203.486 127.626  30.943  0.00  0.00    -0.246 OA
ATOM      9  OD1 ASP A   1     201.633 128.751  30.529  0.00  0.00    -0.246 OA
ENDBRANCH   6   7
ENDBRANCH   1   6
TORSDOF 4
REMARK  Name = ../refined-set-2016/1o1s/1o1s_pocket.pdb
REMARK  277 active torsions:
REMARK  status: ('A' for Active; 'I' for Inactive)
REMARK    1  A    between atoms: _1  and  _3
REMARK    2  A    between atoms: _3  and  _4
REMARK    3  A    between atoms: _7  and  _9
REMARK    4  A    between atoms: _9  and  _10
REMARK    5  A    between atoms: _9  and  _12
REMARK    6  A    between atoms: _12  and  _13
REMARK    7  A    between atoms: _18  and  _19
REMARK    8  A    between atoms: _21  and  _23
REMARK    9  A    between atoms: _23  and  _24
REMARK   10  A    between atoms: _23  and  _26
REMARK   11  A    between atoms: _26  and  _27
REMARK   12  A    between atoms: _27  and  _28
REMARK   13  A    between atoms: _28  and  _29
REMARK   14  A    between atoms: _29  and  _30
REMARK   15  A    between atoms: _34  and  _36
REMARK   16  A    between atoms: _36  and  _37
REMARK   17  A    between atoms: _36  and  _39
REMARK   18  A    between atoms: _39  and  _40
REMARK   19  A    between atoms: _45  and  _47
REMARK   20  A    between atoms: _47  and  _48
REMARK   21  A    between atoms: _47  and  _50
REMARK   22  A    between atoms: _50  and  _51
REMARK   23  A    between atoms: _56  and  _57
REMARK   24  A    between atoms: _59  and  _61
REMARK   25  A    between atoms: _61  and  _62
REMARK   26  A    between atoms: _61  and  _64
REMARK   27  A    between atoms: _64  and  _65
REMARK   28  A    between atoms: _65  and  _66
REMARK   29  A    between atoms: _71  and  _73
REMARK   30  A    between atoms: _73  and  _74
REMARK   31  A    between atoms: _73  and  _76
REMARK   32  A    between atoms: _76  and  _77
REMARK   33  A    between atoms: _80  and  _82
REMARK   34  A    between atoms: _82  and  _83
REMARK   35  A    between atoms: _82  and  _85
REMARK   36  A    between atoms: _85  and  _86
REMARK   37  A    between atoms: _86  and  _87
REMARK   38  A    between atoms: _87  and  _88
REMARK   39  A    between atoms: _88  and  _89
REMARK   40  A    between atoms: _93  and  _95
REMARK   41  A    between atoms: _95  and  _96
REMARK   42  A    between atoms: _95  and  _98
REMARK   43  A    between atoms: _98  and  _99
REMARK   44  A    between atoms: _104  and  _106
REMARK   45  A    between atoms: _106  and  _107
REMARK   46  A    between atoms: _106  and  _109
REMARK   47  A    between atoms: _109  and  _110
REMARK   48  A    between atoms: _115  and  _116
REMARK   49  A    between atoms: _118  and  _120
REMARK   50  A    between atoms: _120  and  _121
REMARK   51  A    between atoms: _120  and  _123
REMARK   52  A    between atoms: _123  and  _124
REMARK   53  A    between atoms: _129  and  _131
REMARK   54  A    between atoms: _131  and  _132
REMARK   55  A    between atoms: _135  and  _137
REMARK   56  A    between atoms: _137  and  _138
REMARK   57  A    between atoms: _137  and  _140
REMARK   58  A    between atoms: _140  and  _141
REMARK   59  A    between atoms: _141  and  _142
REMARK   60  A    between atoms: _147  and  _149
REMARK   61  A    between atoms: _149  and  _150
REMARK   62  A    between atoms: _149  and  _152
REMARK   63  A    between atoms: _152  and  _153
REMARK   64  A    between atoms: _155  and  _157
REMARK   65  A    between atoms: _157  and  _158
REMARK   66  A    between atoms: _157  and  _160
REMARK   67  A    between atoms: _160  and  _161
REMARK   68  A    between atoms: _164  and  _166
REMARK   69  A    between atoms: _166  and  _167
REMARK   70  A    between atoms: _170  and  _172
REMARK   71  A    between atoms: _172  and  _173
REMARK   72  A    between atoms: _172  and  _175
REMARK   73  A    between atoms: _175  and  _176
REMARK   74  A    between atoms: _178  and  _180
REMARK   75  A    between atoms: _180  and  _181
REMARK   76  A    between atoms: _180  and  _183
REMARK   77  A    between atoms: _183  and  _184
REMARK   78  A    between atoms: _194  and  _196
REMARK   79  A    between atoms: _196  and  _197
REMARK   80  A    between atoms: _196  and  _199
REMARK   81  A    between atoms: _199  and  _200
REMARK   82  A    between atoms: _210  and  _212
REMARK   83  A    between atoms: _212  and  _213
REMARK   84  A    between atoms: _212  and  _215
REMARK   85  A    between atoms: _215  and  _216
REMARK   86  A    between atoms: _221  and  _223
REMARK   87  A    between atoms: _223  and  _224
REMARK   88  A    between atoms: _223  and  _226
REMARK   89  A    between atoms: _226  and  _227
REMARK   90  A    between atoms: _230  and  _232
REMARK   91  A    between atoms: _232  and  _233
REMARK   92  A    between atoms: _237  and  _238
REMARK   93  A    between atoms: _243  and  _245
REMARK   94  A    between atoms: _245  and  _246
REMARK   95  A    between atoms: _245  and  _248
REMARK   96  A    between atoms: _248  and  _249
REMARK   97  A    between atoms: _252  and  _254
REMARK   98  A    between atoms: _254  and  _255
REMARK   99  A    between atoms: _254  and  _257
REMARK  100  A    between atoms: _257  and  _258
REMARK  101  A    between atoms: _263  and  _264
REMARK  102  A    between atoms: _266  and  _268
REMARK  103  A    between atoms: _268  and  _269
REMARK  104  A    between atoms: _272  and  _274
REMARK  105  A    between atoms: _274  and  _275
REMARK  106  A    between atoms: _274  and  _277
REMARK  107  A    between atoms: _277  and  _278
REMARK  108  A    between atoms: _278  and  _279
REMARK  109  A    between atoms: _281  and  _283
REMARK  110  A    between atoms: _283  and  _284
REMARK  111  A    between atoms: _283  and  _286
REMARK  112  A    between atoms: _286  and  _287
REMARK  113  A    between atoms: _292  and  _294
REMARK  114  A    between atoms: _294  and  _295
REMARK  115  A    between atoms: _294  and  _297
REMARK  116  A    between atoms: _297  and  _298
REMARK  117  A    between atoms: _298  and  _299
REMARK  118  A    between atoms: _302  and  _304
REMARK  119  A    between atoms: _304  and  _305
REMARK  120  A    between atoms: _304  and  _307
REMARK  121  A    between atoms: _307  and  _308
REMARK  122  A    between atoms: _311  and  _313
REMARK  123  A    between atoms: _313  and  _314
REMARK  124  A    between atoms: _313  and  _316
REMARK  125  A    between atoms: _319  and  _321
REMARK  126  A    between atoms: _321  and  _322
REMARK  127  A    between atoms: _321  and  _324
REMARK  128  A    between atoms: _324  and  _325
REMARK  129  A    between atoms: _325  and  _326
REMARK  130  A    between atoms: _326  and  _327
REMARK  131  A    between atoms: _336  and  _338
REMARK  132  A    between atoms: _338  and  _339
REMARK  133  A    between atoms: _338  and  _341
REMARK  134  A    between atoms: _341  and  _342
REMARK  135  A    between atoms: _344  and  _346
REMARK  136  A    between atoms: _346  and  _347
REMARK  137  A    between atoms: _346  and  _349
REMARK  138  A    between atoms: _349  and  _350
REMARK  139  A    between atoms: _355  and  _356
REMARK  140  A    between atoms: _358  and  _360
REMARK  141  A    between atoms: _360  and  _361
REMARK  142  A    between atoms: _360  and  _363
REMARK  143  A    between atoms: _365  and  _367
REMARK  144  A    between atoms: _367  and  _368
REMARK  145  A    between atoms: _370  and  _372
REMARK  146  A    between atoms: _372  and  _373
REMARK  147  A    between atoms: _372  and  _375
REMARK  148  A    between atoms: _375  and  _376
REMARK  149  A    between atoms: _376  and  _377
REMARK  150  A    between atoms: _379  and  _381
REMARK  151  A    between atoms: _381  and  _382
REMARK  152  A    between atoms: _381  and  _384
REMARK  153  A    between atoms: _384  and  _385
REMARK  154  A    between atoms: _385  and  _386
REMARK  155  A    between atoms: _389  and  _391
REMARK  156  A    between atoms: _391  and  _392
REMARK  157  A    between atoms: _395  and  _397
REMARK  158  A    between atoms: _397  and  _398
REMARK  159  A    between atoms: _397  and  _400
REMARK  160  A    between atoms: _400  and  _401
REMARK  161  A    between atoms: _406  and  _408
REMARK  162  A    between atoms: _408  and  _409
REMARK  163  A    between atoms: _411  and  _413
REMARK  164  A    between atoms: _413  and  _414
REMARK  165  A    between atoms: _416  and  _418
REMARK  166  A    between atoms: _418  and  _419
REMARK  167  A    between atoms: _418  and  _421
REMARK  168  A    between atoms: _421  and  _422
REMARK  169  A    between atoms: _427  and  _428
REMARK  170  A    between atoms: _430  and  _432
REMARK  171  A    between atoms: _432  and  _433
REMARK  172  A    between atoms: _432  and  _435
REMARK  173  A    between atoms: _435  and  _436
REMARK  174  A    between atoms: _439  and  _441
REMARK  175  A    between atoms: _441  and  _442
REMARK  176  A    between atoms: _441  and  _444
REMARK  177  A    between atoms: _444  and  _445
REMARK  178  A    between atoms: _451  and  _453
REMARK  179  A    between atoms: _453  and  _454
REMARK  180  A    between atoms: _453  and  _456
REMARK  181  A    between atoms: _458  and  _460
REMARK  182  A    between atoms: _460  and  _461
REMARK  183  A    between atoms: _463  and  _465
REMARK  184  A    between atoms: _465  and  _466
REMARK  185  A    between atoms: _465  and  _468
REMARK  186  A    between atoms: _468  and  _469
REMARK  187  A    between atoms: _475  and  _477
REMARK  188  A    between atoms: _477  and  _478
REMARK  189  A    between atoms: _477  and  _480
REMARK  190  A    between atoms: _480  and  _481
REMARK  191  A    between atoms: _481  and  _482
REMARK  192  A    between atoms: _487  and  _489
REMARK  193  A    between atoms: _489  and  _490
REMARK  194  A    between atoms: _492  and  _494
REMARK  195  A    between atoms: _494  and  _495
REMARK  196  A    between atoms: _494  and  _497
REMARK  197  A    between atoms: _497  and  _498
REMARK  198  A    between atoms: _498  and  _499
REMARK  199  A    between atoms: _499  and  _500
REMARK  200  A    between atoms: _509  and  _511
REMARK  201  A    between atoms: _511  and  _512
REMARK  202  A    between atoms: _511  and  _514
REMARK  203  A    between atoms: _516  and  _518
REMARK  204  A    between atoms: _518  and  _519
REMARK  205  A    between atoms: _518  and  _521
REMARK  206  A    between atoms: _521  and  _522
REMARK  207  A    between atoms: _527  and  _529
REMARK  208  A    between atoms: _529  and  _530
REMARK  209  A    between atoms: _529  and  _532
REMARK  210  A    between atoms: _532  and  _533
REMARK  211  A    between atoms: _533  and  _534
REMARK  212  A    between atoms: _534  and  _535
REMARK  213  A    between atoms: _535  and  _536
REMARK  214  A    between atoms: _540  and  _542
REMARK  215  A    between atoms: _542  and  _543
REMARK  216  A    between atoms: _542  and  _545
REMARK  217  A    between atoms: _545  and  _546
REMARK  218  A    between atoms: _549  and  _551
REMARK  219  A    between atoms: _551  and  _552
REMARK  220  A    between atoms: _551  and  _554
REMARK  221  A    between atoms: _557  and  _559
REMARK  222  A    between atoms: _559  and  _560
REMARK  223  A    between atoms: _559  and  _562
REMARK  224  A    between atoms: _562  and  _563
REMARK  225  A    between atoms: _563  and  _565
REMARK  226  A    between atoms: _565  and  ZN_690
REMARK  227  A    between atoms: _566  and  _568
REMARK  228  A    between atoms: _568  and  _569
REMARK  229  A    between atoms: _568  and  _571
REMARK  230  A    between atoms: _571  and  _572
REMARK  231  A    between atoms: _572  and  ZN_690
REMARK  232  A    between atoms: _573  and  _575
REMARK  233  A    between atoms: _575  and  _576
REMARK  234  A    between atoms: _575  and  _578
REMARK  235  A    between atoms: _578  and  _579
REMARK  236  A    between atoms: _584  and  _585
REMARK  237  A    between atoms: _587  and  _589
REMARK  238  A    between atoms: _589  and  _590
REMARK  239  A    between atoms: _589  and  _592
REMARK  240  A    between atoms: _592  and  _593
REMARK  241  A    between atoms: _599  and  _601
REMARK  242  A    between atoms: _601  and  _602
REMARK  243  A    between atoms: _601  and  _604
REMARK  244  A    between atoms: _604  and  _605
REMARK  245  A    between atoms: _615  and  _617
REMARK  246  A    between atoms: _617  and  _618
REMARK  247  A    between atoms: _617  and  _620
REMARK  248  A    between atoms: _620  and  _621
REMARK  249  A    between atoms: _621  and  _622
REMARK  250  A    between atoms: _627  and  _629
REMARK  251  A    between atoms: _629  and  _630
REMARK  252  A    between atoms: _629  and  _632
REMARK  253  A    between atoms: _632  and  _633
REMARK  254  A    between atoms: _636  and  _638
REMARK  255  A    between atoms: _638  and  _639
REMARK  256  A    between atoms: _638  and  _641
REMARK  257  A    between atoms: _641  and  _642
REMARK  258  A    between atoms: _642  and  _643
REMARK  259  A    between atoms: _643  and  _644
REMARK  260  A    between atoms: _644  and  _645
REMARK  261  A    between atoms: _649  and  _651
REMARK  262  A    between atoms: _651  and  _652
REMARK  263  A    between atoms: _651  and  _654
REMARK  264  A    between atoms: _654  and  _655
REMARK  265  A    between atoms: _655  and  _656
REMARK  266  A    between atoms: _656  and  _657
REMARK  267  A    between atoms: _657  and  _658
REMARK  268  A    between atoms: _662  and  _664
REMARK  269  A    between atoms: _664  and  _665
REMARK  270  A    between atoms: _664  and  _667
REMARK  271  A    between atoms: _667  and  _668
REMARK  272  A    between atoms: _673  and  _674
REMARK  273  A    between atoms: _676  and  _678
REMARK  274  A    between atoms: _678  and  _679
REMARK  275  A    between atoms: _678  and  _681
REMARK  276  A    between atoms: _681  and  _682
REMARK  277  A    between atoms: _687  and  _688
REMARK                            x       y       z     vdW  Elec       q    Type
REMARK                         _______ _______ _______ _____ _____    ______ ____
ROOT
ATOM      1  CA  TYR A   3     198.505 122.886  27.245  0.00  0.00    +0.153 C 
ENDROOT
BRANCH   1   3
ATOM      2  C   ASN A   2     200.277 124.560  27.240  0.00  0.00    +0.241 C 
ATOM      3  N   TYR A   3     199.166 124.065  27.775  0.00  0.00    -0.297 N 
ATOM      4  H   TYR A   3     198.755 124.540  28.604  0.00  0.00    +0.150 HD
ATOM      5  O   ASN A   2     200.829 124.058  26.255  0.00  0.00    -0.273 OA
BRANCH   2   6
ATOM      6  CA  ASN A   2     200.888 125.780  27.959  0.00  0.00    +0.158 C 
BRANCH   6   9
ATOM      7  C   LYS A   1     202.246 124.375  29.403  0.00  0.00    +0.238 C 
ATOM      8  O   LYS A   1     201.266 123.706  29.731  0.00  0.00    -0.274 OA
ATOM      9  N   ASN A   2     202.175 125.384  28.542  0.00  0.00    -0.297 N 
ATOM     10  H   ASN A   2     203.040 125.898  28.279  0.00  0.00    +0.150 HD
BRANCH   7  11
ATOM     11  CA  LYS A   1     203.610 124.039  29.958  0.00  0.00    +0.145 C 
BRANCH  11  12
ATOM     12  N   LYS A   1     204.587 125.065  29.692  0.00  0.00    -0.238 NA
ATOM     13  H   LYS A   1     204.406 126.052  29.965  0.00  0.00    +0.142 HD
ENDBRANCH  11  12
BRANCH  11  14
ATOM     14  CB  LYS A   1     203.533 123.773  31.470  0.00  0.00    +0.026 C 
BRANCH  14  15
ATOM     15  CG  LYS A   1     204.833 123.242  32.084  0.00  0.00    -0.000 C 
BRANCH  15  16
ATOM     16  CD  LYS A   1     204.733 123.110  33.610  0.00  0.00    -0.024 C 
BRANCH  16  17
ATOM     17  CE  LYS A   1     206.050 122.636  34.236  0.00  0.00    -0.086 C 
BRANCH  17  18
ATOM     18  NZ  LYS A   1     205.883 122.296  35.669  0.00  0.00    +0.380 N 
ATOM     19  HZ1 LYS A   1     205.556 123.136  36.188  0.00  0.00    -0.089 HD
ATOM     20  HZ2 LYS A   1     206.794 121.980  36.058  0.00  0.00    -0.089 HD
ATOM     21  HZ3 LYS A   1     205.181 121.534  35.764  0.00  0.00    -0.089 HD
ENDBRANCH  17  18
ENDBRANCH  16  17
ENDBRANCH  15  16
ENDBRANCH  14  15
ENDBRANCH  11  14
ENDBRANCH   7  11
ENDBRANCH   6   9
BRANCH   6  22
ATOM     22  CB  ASN A   2     201.093 126.970  27.007  0.00  0.00    +0.114 C 
BRANCH  22  23
ATOM     23  CG  ASN A   2     199.801 127.487  26.428  0.00  0.00    +0.222 C 
ATOM     24  ND2 ASN A   2     199.504 128.742  26.694  0.00  0.00    -0.329 N 
ATOM     25 HD21 ASN A   2     200.132 129.308  27.299  0.00  0.00    +0.145 HD
ATOM     26 HD22 ASN A   2     198.641 129.167  26.299  0.00  0.00    +0.145 HD
ATOM     27  OD1 ASN A   2     199.092 126.774  25.718  0.00  0.00    -0.275 OA
ENDBRANCH  22  23
ENDBRANCH   6  22
ENDBRANCH   2   6
ENDBRANCH   1   3
BRANCH   1  28
ATOM     28  C   TYR A   3     198.117 123.002  25.767  0.00  0.00    +0.241 C 
ATOM     29  N   HIS A   4     197.549 124.144  25.382  0.00  0.00    -0.297 N 
ATOM     30  H   HIS A   4     197.379 124.876  26.101  0.00  0.00    +0.150 HD
ATOM     31  O   TYR A   3     198.344 122.078  24.992  0.00  0.00    -0.273 OA
BRANCH  29  32
ATOM     32  CA  HIS A   4     197.151 124.423  24.000  0.00  0.00    +0.155 C 
BRANCH  32  33
ATOM     33  C   HIS A   4     198.355 124.415  23.070  0.00  0.00    +0.241 C 
ATOM     34  N   ALA A   5     199.451 125.020  23.521  0.00  0.00    -0.298 N 
ATOM     35  H   ALA A   5     199.447 125.447  24.469  0.00  0.00    +0.150 HD
ATOM     36  O   HIS A   4     198.278 123.914  21.954  0.00  0.00    -0.273 OA
BRANCH  34  37
ATOM     37  CA  ALA A   5     200.650 125.093  22.710  0.00  0.00    +0.137 C 
ATOM     38  CB  ALA A   5     201.704 125.957  23.383  0.00  0.00    +0.030 C 
BRANCH  37  39
ATOM     39  C   ALA A   5     201.185 123.694  22.446  0.00  0.00    +0.227 C 
ATOM     40  O   ALA A   5     201.578 123.375  21.322  0.00  0.00    -0.286 OA
ENDBRANCH  37  39
ENDBRANCH  34  37
ENDBRANCH  32  33
BRANCH  32  41
ATOM     41  CB  HIS A   4     196.524 125.811  23.887  0.00  0.00    +0.076 C 
BRANCH  41  42
ATOM     42  CG  HIS A   4     195.284 125.985  24.697  0.00  0.00    +0.082 A 
ATOM     43  CD2 HIS A   4     194.943 126.921  25.612  0.00  0.00    +0.115 A 
ATOM     44  NE2 HIS A   4     193.674 126.622  26.042  0.00  0.00    -0.221 NA
ATOM     45  CE1 HIS A   4     193.252 125.542  25.416  0.00  0.00    +0.199 A 
ATOM     46  ND1 HIS A   4     194.206 125.136  24.598  0.00  0.00    -0.227 NA
ENDBRANCH  41  42
ENDBRANCH  32  41
ENDBRANCH  29  32
ENDBRANCH   1  28
BRANCH   1  47
ATOM     47  CB  TYR A   3     197.298 122.567  28.114  0.00  0.00    +0.055 C 
BRANCH  47  48
ATOM     48  CG  TYR A   3     196.899 121.105  28.088  0.00  0.00    -0.020 A 
ATOM     49  CD2 TYR A   3     197.482 120.173  28.962  0.00  0.00    -0.001 A 
ATOM     50  CE2 TYR A   3     197.089 118.809  28.936  0.00  0.00    +0.036 A 
ATOM     51  CZ  TYR A   3     196.111 118.394  28.031  0.00  0.00    +0.134 A 
ATOM     52  CE1 TYR A   3     195.535 119.300  27.168  0.00  0.00    +0.036 A 
ATOM     53  CD1 TYR A   3     195.926 120.647  27.196  0.00  0.00    -0.001 A 
BRANCH  51  54
ATOM     54  OH  TYR A   3     195.668 117.086  27.984  0.00  0.00    -0.506 OA
ATOM     55  HH  TYR A   3     196.162 116.547  28.651  0.00  0.00    +0.292 HD
ENDBRANCH  51  54
ENDBRANCH  47  48
ENDBRANCH   1  47
TORSDOF 22
REMARK  Name = ../refined-set-2016/1o1s/1o1s_pocket.pdb
REMARK  277 active torsions:
REMARK  status: ('A' for Active; 'I' for Inactive)
REMARK    1  A    between atoms: _1  and  _3
REMARK    2  A    between atoms: _3  and  _4
REMARK    3  A    between atoms: _7  and  _9
REMARK    4  A    between atoms: _9  and  _10
REMARK    5  A    between atoms: _9  and  _12
REMARK    6  A    between atoms: _12  and  _13
REMARK    7  A    between atoms: _18  and  _19
REMARK    8  A    between atoms: _21  and  _23
REMARK    9  A    between atoms: _23  and  _24
REMARK   10  A    between atoms: _23  and  _26
REMARK   11  A    between atoms: _26  and  _27
REMARK   12  A    between atoms: _27  and  _28
REMARK   13  A    between atoms: _28  and  _29
REMARK   14  A    between atoms: _29  and  _30
REMARK   15  A    between atoms: _34  and  _36
REMARK   16  A    between atoms: _36  and  _37
REMARK   17  A    between atoms: _36  and  _39
REMARK   18  A    between atoms: _39  and  _40
REMARK   19  A    between atoms: _45  and  _47
REMARK   20  A    between atoms: _47  and  _48
REMARK   21  A    between atoms: _47  and  _50
REMARK   22  A    between atoms: _50  and  _51
REMARK   23  A    between atoms: _56  and  _57
REMARK   24  A    between atoms: _59  and  _61
REMARK   25  A    between atoms: _61  and  _62
REMARK   26  A    between atoms: _61  and  _64
REMARK   27  A    between atoms: _64  and  _65
REMARK   28  A    between atoms: _65  and  _66
REMARK   29  A    between atoms: _71  and  _73
REMARK   30  A    between atoms: _73  and  _74
REMARK   31  A    between atoms: _73  and  _76
REMARK   32  A    between atoms: _76  and  _77
REMARK   33  A    between atoms: _80  and  _82
REMARK   34  A    between atoms: _82  and  _83
REMARK   35  A    between atoms: _82  and  _85
REMARK   36  A    between atoms: _85  and  _86
REMARK   37  A    between atoms: _86  and  _87
REMARK   38  A    between atoms: _87  and  _88
REMARK   39  A    between atoms: _88  and  _89
REMARK   40  A    between atoms: _93  and  _95
REMARK   41  A    between atoms: _95  and  _96
REMARK   42  A    between atoms: _95  and  _98
REMARK   43  A    between atoms: _98  and  _99
REMARK   44  A    between atoms: _104  and  _106
REMARK   45  A    between atoms: _106  and  _107
REMARK   46  A    between atoms: _106  and  _109
REMARK   47  A    between atoms: _109  and  _110
REMARK   48  A    between atoms: _115  and  _116
REMARK   49  A    between atoms: _118  and  _120
REMARK   50  A    between atoms: _120  and  _121
REMARK   51  A    between atoms: _120  and  _123
REMARK   52  A    between atoms: _123  and  _124
REMARK   53  A    between atoms: _129  and  _131
REMARK   54  A    between atoms: _131  and  _132
REMARK   55  A    between atoms: _135  and  _137
REMARK   56  A    between atoms: _137  and  _138
REMARK   57  A    between atoms: _137  and  _140
REMARK   58  A    between atoms: _140  and  _141
REMARK   59  A    between atoms: _141  and  _142
REMARK   60  A    between atoms: _147  and  _149
REMARK   61  A    between atoms: _149  and  _150
REMARK   62  A    between atoms: _149  and  _152
REMARK   63  A    between atoms: _152  and  _153
REMARK   64  A    between atoms: _155  and  _157
REMARK   65  A    between atoms: _157  and  _158
REMARK   66  A    between atoms: _157  and  _160
REMARK   67  A    between atoms: _160  and  _161
REMARK   68  A    between atoms: _164  and  _166
REMARK   69  A    between atoms: _166  and  _167
REMARK   70  A    between atoms: _170  and  _172
REMARK   71  A    between atoms: _172  and  _173
REMARK   72  A    between atoms: _172  and  _175
REMARK   73  A    between atoms: _175  and  _176
REMARK   74  A    between atoms: _178  and  _180
REMARK   75  A    between atoms: _180  and  _181
REMARK   76  A    between atoms: _180  and  _183
REMARK   77  A    between atoms: _183  and  _184
REMARK   78  A    between atoms: _194  and  _196
REMARK   79  A    between atoms: _196  and  _197
REMARK   80  A    between atoms: _196  and  _199
REMARK   81  A    between atoms: _199  and  _200
REMARK   82  A    between atoms: _210  and  _212
REMARK   83  A    between atoms: _212  and  _213
REMARK   84  A    between atoms: _212  and  _215
REMARK   85  A    between atoms: _215  and  _216
REMARK   86  A    between atoms: _221  and  _223
REMARK   87  A    between atoms: _223  and  _224
REMARK   88  A    between atoms: _223  and  _226
REMARK   89  A    between atoms: _226  and  _227
REMARK   90  A    between atoms: _230  and  _232
REMARK   91  A    between atoms: _232  and  _233
REMARK   92  A    between atoms: _237  and  _238
REMARK   93  A    between atoms: _243  and  _245
REMARK   94  A    between atoms: _245  and  _246
REMARK   95  A    between atoms: _245  and  _248
REMARK   96  A    between atoms: _248  and  _249
REMARK   97  A    between atoms: _252  and  _254
REMARK   98  A    between atoms: _254  and  _255
REMARK   99  A    between atoms: _254  and  _257
REMARK  100  A    between atoms: _257  and  _258
REMARK  101  A    between atoms: _263  and  _264
REMARK  102  A    between atoms: _266  and  _268
REMARK  103  A    between atoms: _268  and  _269
REMARK  104  A    between atoms: _272  and  _274
REMARK  105  A    between atoms: _274  and  _275
REMARK  106  A    between atoms: _274  and  _277
REMARK  107  A    between atoms: _277  and  _278
REMARK  108  A    between atoms: _278  and  _279
REMARK  109  A    between atoms: _281  and  _283
REMARK  110  A    between atoms: _283  and  _284
REMARK  111  A    between atoms: _283  and  _286
REMARK  112  A    between atoms: _286  and  _287
REMARK  113  A    between atoms: _292  and  _294
REMARK  114  A    between atoms: _294  and  _295
REMARK  115  A    between atoms: _294  and  _297
REMARK  116  A    between atoms: _297  and  _298
REMARK  117  A    between atoms: _298  and  _299
REMARK  118  A    between atoms: _302  and  _304
REMARK  119  A    between atoms: _304  and  _305
REMARK  120  A    between atoms: _304  and  _307
REMARK  121  A    between atoms: _307  and  _308
REMARK  122  A    between atoms: _311  and  _313
REMARK  123  A    between atoms: _313  and  _314
REMARK  124  A    between atoms: _313  and  _316
REMARK  125  A    between atoms: _319  and  _321
REMARK  126  A    between atoms: _321  and  _322
REMARK  127  A    between atoms: _321  and  _324
REMARK  128  A    between atoms: _324  and  _325
REMARK  129  A    between atoms: _325  and  _326
REMARK  130  A    between atoms: _326  and  _327
REMARK  131  A    between atoms: _336  and  _338
REMARK  132  A    between atoms: _338  and  _339
REMARK  133  A    between atoms: _338  and  _341
REMARK  134  A    between atoms: _341  and  _342
REMARK  135  A    between atoms: _344  and  _346
REMARK  136  A    between atoms: _346  and  _347
REMARK  137  A    between atoms: _346  and  _349
REMARK  138  A    between atoms: _349  and  _350
REMARK  139  A    between atoms: _355  and  _356
REMARK  140  A    between atoms: _358  and  _360
REMARK  141  A    between atoms: _360  and  _361
REMARK  142  A    between atoms: _360  and  _363
REMARK  143  A    between atoms: _365  and  _367
REMARK  144  A    between atoms: _367  and  _368
REMARK  145  A    between atoms: _370  and  _372
REMARK  146  A    between atoms: _372  and  _373
REMARK  147  A    between atoms: _372  and  _375
REMARK  148  A    between atoms: _375  and  _376
REMARK  149  A    between atoms: _376  and  _377
REMARK  150  A    between atoms: _379  and  _381
REMARK  151  A    between atoms: _381  and  _382
REMARK  152  A    between atoms: _381  and  _384
REMARK  153  A    between atoms: _384  and  _385
REMARK  154  A    between atoms: _385  and  _386
REMARK  155  A    between atoms: _389  and  _391
REMARK  156  A    between atoms: _391  and  _392
REMARK  157  A    between atoms: _395  and  _397
REMARK  158  A    between atoms: _397  and  _398
REMARK  159  A    between atoms: _397  and  _400
REMARK  160  A    between atoms: _400  and  _401
REMARK  161  A    between atoms: _406  and  _408
REMARK  162  A    between atoms: _408  and  _409
REMARK  163  A    between atoms: _411  and  _413
REMARK  164  A    between atoms: _413  and  _414
REMARK  165  A    between atoms: _416  and  _418
REMARK  166  A    between atoms: _418  and  _419
REMARK  167  A    between atoms: _418  and  _421
REMARK  168  A    between atoms: _421  and  _422
REMARK  169  A    between atoms: _427  and  _428
REMARK  170  A    between atoms: _430  and  _432
REMARK  171  A    between atoms: _432  and  _433
REMARK  172  A    between atoms: _432  and  _435
REMARK  173  A    between atoms: _435  and  _436
REMARK  174  A    between atoms: _439  and  _441
REMARK  175  A    between atoms: _441  and  _442
REMARK  176  A    between atoms: _441  and  _444
REMARK  177  A    between atoms: _444  and  _445
REMARK  178  A    between atoms: _451  and  _453
REMARK  179  A    between atoms: _453  and  _454
REMARK  180  A    between atoms: _453  and  _456
REMARK  181  A    between atoms: _458  and  _460
REMARK  182  A    between atoms: _460  and  _461
REMARK  183  A    between atoms: _463  and  _465
REMARK  184  A    between atoms: _465  and  _466
REMARK  185  A    between atoms: _465  and  _468
REMARK  186  A    between atoms: _468  and  _469
REMARK  187  A    between atoms: _475  and  _477
REMARK  188  A    between atoms: _477  and  _478
REMARK  189  A    between atoms: _477  and  _480
REMARK  190  A    between atoms: _480  and  _481
REMARK  191  A    between atoms: _481  and  _482
REMARK  192  A    between atoms: _487  and  _489
REMARK  193  A    between atoms: _489  and  _490
REMARK  194  A    between atoms: _492  and  _494
REMARK  195  A    between atoms: _494  and  _495
REMARK  196  A    between atoms: _494  and  _497
REMARK  197  A    between atoms: _497  and  _498
REMARK  198  A    between atoms: _498  and  _499
REMARK  199  A    between atoms: _499  and  _500
REMARK  200  A    between atoms: _509  and  _511
REMARK  201  A    between atoms: _511  and  _512
REMARK  202  A    between atoms: _511  and  _514
REMARK  203  A    between atoms: _516  and  _518
REMARK  204  A    between atoms: _518  and  _519
REMARK  205  A    between atoms: _518  and  _521
REMARK  206  A    between atoms: _521  and  _522
REMARK  207  A    between atoms: _527  and  _529
REMARK  208  A    between atoms: _529  and  _530
REMARK  209  A    between atoms: _529  and  _532
REMARK  210  A    between atoms: _532  and  _533
REMARK  211  A    between atoms: _533  and  _534
REMARK  212  A    between atoms: _534  and  _535
REMARK  213  A    between atoms: _535  and  _536
REMARK  214  A    between atoms: _540  and  _542
REMARK  215  A    between atoms: _542  and  _543
REMARK  216  A    between atoms: _542  and  _545
REMARK  217  A    between atoms: _545  and  _546
REMARK  218  A    between atoms: _549  and  _551
REMARK  219  A    between atoms: _551  and  _552
REMARK  220  A    between atoms: _551  and  _554
REMARK  221  A    between atoms: _557  and  _559
REMARK  222  A    between atoms: _559  and  _560
REMARK  223  A    between atoms: _559  and  _562
REMARK  224  A    between atoms: _562  and  _563
REMARK  225  A    between atoms: _563  and  _565
REMARK  226  A    between atoms: _565  and  ZN_690
REMARK  227  A    between atoms: _566  and  _568
REMARK  228  A    between atoms: _568  and  _569
REMARK  229  A    between atoms: _568  and  _571
REMARK  230  A    between atoms: _571  and  _572
REMARK  231  A    between atoms: _572  and  ZN_690
REMARK  232  A    between atoms: _573  and  _575
REMARK  233  A    between atoms: _575  and  _576
REMARK  234  A    between atoms: _575  and  _578
REMARK  235  A    between atoms: _578  and  _579
REMARK  236  A    between atoms: _584  and  _585
REMARK  237  A    between atoms: _587  and  _589
REMARK  238  A    between atoms: _589  and  _590
REMARK  239  A    between atoms: _589  and  _592
REMARK  240  A    between atoms: _592  and  _593
REMARK  241  A    between atoms: _599  and  _601
REMARK  242  A    between atoms: _601  and  _602
REMARK  243  A    between atoms: _601  and  _604
REMARK  244  A    between atoms: _604  and  _605
REMARK  245  A    between atoms: _615  and  _617
REMARK  246  A    between atoms: _617  and  _618
REMARK  247  A    between atoms: _617  and  _620
REMARK  248  A    between atoms: _620  and  _621
REMARK  249  A    between atoms: _621  and  _622
REMARK  250  A    between atoms: _627  and  _629
REMARK  251  A    between atoms: _629  and  _630
REMARK  252  A    between atoms: _629  and  _632
REMARK  253  A    between atoms: _632  and  _633
REMARK  254  A    between atoms: _636  and  _638
REMARK  255  A    between atoms: _638  and  _639
REMARK  256  A    between atoms: _638  and  _641
REMARK  257  A    between atoms: _641  and  _642
REMARK  258  A    between atoms: _642  and  _643
REMARK  259  A    between atoms: _643  and  _644
REMARK  260  A    between atoms: _644  and  _645
REMARK  261  A    between atoms: _649  and  _651
REMARK  262  A    between atoms: _651  and  _652
REMARK  263  A    between atoms: _651  and  _654
REMARK  264  A    between atoms: _654  and  _655
REMARK  265  A    between atoms: _655  and  _656
REMARK  266  A    between atoms: _656  and  _657
REMARK  267  A    between atoms: _657  and  _658
REMARK  268  A    between atoms: _662  and  _664
REMARK  269  A    between atoms: _664  and  _665
REMARK  270  A    between atoms: _664  and  _667
REMARK  271  A    between atoms: _667  and  _668
REMARK  272  A    between atoms: _673  and  _674
REMARK  273  A    between atoms: _676  and  _678
REMARK  274  A    between atoms: _678  and  _679
REMARK  275  A    between atoms: _678  and  _681
REMARK  276  A    between atoms: _681  and  _682
REMARK  277  A    between atoms: _687  and  _688
REMARK                            x       y       z     vdW  Elec       q    Type
REMARK                         _______ _______ _______ _____ _____    ______ ____
ROOT
ATOM      1  CB  GLN A   1     196.987 120.602  22.185  0.00  0.00    +0.035 C 
ENDROOT
BRANCH   1   2
ATOM      2  CA  GLN A   1     198.412 120.260  21.764  0.00  0.00    +0.134 C 
BRANCH   2   3
ATOM      3  N   GLN A   1     199.390 120.973  22.575  0.00  0.00    -0.239 NA
ATOM      4  H   GLN A   1     199.075 121.704  23.244  0.00  0.00    +0.142 HD
ENDBRANCH   2   3
BRANCH   2   5
ATOM      5  C   GLN A   1     198.596 120.622  20.294  0.00  0.00    +0.224 C 
ATOM      6  O   GLN A   1     198.532 119.768  19.416  0.00  0.00    -0.287 OA
ENDBRANCH   2   5
ENDBRANCH   1   2
BRANCH   1   7
ATOM      7  CG  GLN A   1     195.923 119.802  21.412  0.00  0.00    +0.087 C 
BRANCH   7   8
ATOM      8  CD  GLN A   1     194.554 119.811  22.075  0.00  0.00    +0.219 C 
ATOM      9  NE2 GLN A   1     194.534 119.918  23.399  0.00  0.00    -0.329 N 
ATOM     10 HE21 GLN A   1     195.425 120.012  23.927  0.00  0.00    +0.145 HD
ATOM     11 HE22 GLN A   1     193.627 119.908  23.908  0.00  0.00    +0.145 HD
ATOM     12  OE1 GLN A   1     193.528 119.698  21.408  0.00  0.00    -0.275 OA
ENDBRANCH   7   8
ENDBRANCH   1   7
TORSDOF 5
REMARK  Name = ../refined-set-2016/1o1s/1o1s_pocket.pdb
REMARK  277 active torsions:
REMARK  status: ('A' for Active; 'I' for Inactive)
REMARK    1  A    between atoms: _1  and  _3
REMARK    2  A    between atoms: _3  and  _4
REMARK    3  A    between atoms: _7  and  _9
REMARK    4  A    between atoms: _9  and  _10
REMARK    5  A    between atoms: _9  and  _12
REMARK    6  A    between atoms: _12  and  _13
REMARK    7  A    between atoms: _18  and  _19
REMARK    8  A    between atoms: _21  and  _23
REMARK    9  A    between atoms: _23  and  _24
REMARK   10  A    between atoms: _23  and  _26
REMARK   11  A    between atoms: _26  and  _27
REMARK   12  A    between atoms: _27  and  _28
REMARK   13  A    between atoms: _28  and  _29
REMARK   14  A    between atoms: _29  and  _30
REMARK   15  A    between atoms: _34  and  _36
REMARK   16  A    between atoms: _36  and  _37
REMARK   17  A    between atoms: _36  and  _39
REMARK   18  A    between atoms: _39  and  _40
REMARK   19  A    between atoms: _45  and  _47
REMARK   20  A    between atoms: _47  and  _48
REMARK   21  A    between atoms: _47  and  _50
REMARK   22  A    between atoms: _50  and  _51
REMARK   23  A    between atoms: _56  and  _57
REMARK   24  A    between atoms: _59  and  _61
REMARK   25  A    between atoms: _61  and  _62
REMARK   26  A    between atoms: _61  and  _64
REMARK   27  A    between atoms: _64  and  _65
REMARK   28  A    between atoms: _65  and  _66
REMARK   29  A    between atoms: _71  and  _73
REMARK   30  A    between atoms: _73  and  _74
REMARK   31  A    between atoms: _73  and  _76
REMARK   32  A    between atoms: _76  and  _77
REMARK   33  A    between atoms: _80  and  _82
REMARK   34  A    between atoms: _82  and  _83
REMARK   35  A    between atoms: _82  and  _85
REMARK   36  A    between atoms: _85  and  _86
REMARK   37  A    between atoms: _86  and  _87
REMARK   38  A    between atoms: _87  and  _88
REMARK   39  A    between atoms: _88  and  _89
REMARK   40  A    between atoms: _93  and  _95
REMARK   41  A    between atoms: _95  and  _96
REMARK   42  A    between atoms: _95  and  _98
REMARK   43  A    between atoms: _98  and  _99
REMARK   44  A    between atoms: _104  and  _106
REMARK   45  A    between atoms: _106  and  _107
REMARK   46  A    between atoms: _106  and  _109
REMARK   47  A    between atoms: _109  and  _110
REMARK   48  A    between atoms: _115  and  _116
REMARK   49  A    between atoms: _118  and  _120
REMARK   50  A    between atoms: _120  and  _121
REMARK   51  A    between atoms: _120  and  _123
REMARK   52  A    between atoms: _123  and  _124
REMARK   53  A    between atoms: _129  and  _131
REMARK   54  A    between atoms: _131  and  _132
REMARK   55  A    between atoms: _135  and  _137
REMARK   56  A    between atoms: _137  and  _138
REMARK   57  A    between atoms: _137  and  _140
REMARK   58  A    between atoms: _140  and  _141
REMARK   59  A    between atoms: _141  and  _142
REMARK   60  A    between atoms: _147  and  _149
REMARK   61  A    between atoms: _149  and  _150
REMARK   62  A    between atoms: _149  and  _152
REMARK   63  A    between atoms: _152  and  _153
REMARK   64  A    between atoms: _155  and  _157
REMARK   65  A    between atoms: _157  and  _158
REMARK   66  A    between atoms: _157  and  _160
REMARK   67  A    between atoms: _160  and  _161
REMARK   68  A    between atoms: _164  and  _166
REMARK   69  A    between atoms: _166  and  _167
REMARK   70  A    between atoms: _170  and  _172
REMARK   71  A    between atoms: _172  and  _173
REMARK   72  A    between atoms: _172  and  _175
REMARK   73  A    between atoms: _175  and  _176
REMARK   74  A    between atoms: _178  and  _180
REMARK   75  A    between atoms: _180  and  _181
REMARK   76  A    between atoms: _180  and  _183
REMARK   77  A    between atoms: _183  and  _184
REMARK   78  A    between atoms: _194  and  _196
REMARK   79  A    between atoms: _196  and  _197
REMARK   80  A    between atoms: _196  and  _199
REMARK   81  A    between atoms: _199  and  _200
REMARK   82  A    between atoms: _210  and  _212
REMARK   83  A    between atoms: _212  and  _213
REMARK   84  A    between atoms: _212  and  _215
REMARK   85  A    between atoms: _215  and  _216
REMARK   86  A    between atoms: _221  and  _223
REMARK   87  A    between atoms: _223  and  _224
REMARK   88  A    between atoms: _223  and  _226
REMARK   89  A    between atoms: _226  and  _227
REMARK   90  A    between atoms: _230  and  _232
REMARK   91  A    between atoms: _232  and  _233
REMARK   92  A    between atoms: _237  and  _238
REMARK   93  A    between atoms: _243  and  _245
REMARK   94  A    between atoms: _245  and  _246
REMARK   95  A    between atoms: _245  and  _248
REMARK   96  A    between atoms: _248  and  _249
REMARK   97  A    between atoms: _252  and  _254
REMARK   98  A    between atoms: _254  and  _255
REMARK   99  A    between atoms: _254  and  _257
REMARK  100  A    between atoms: _257  and  _258
REMARK  101  A    between atoms: _263  and  _264
REMARK  102  A    between atoms: _266  and  _268
REMARK  103  A    between atoms: _268  and  _269
REMARK  104  A    between atoms: _272  and  _274
REMARK  105  A    between atoms: _274  and  _275
REMARK  106  A    between atoms: _274  and  _277
REMARK  107  A    between atoms: _277  and  _278
REMARK  108  A    between atoms: _278  and  _279
REMARK  109  A    between atoms: _281  and  _283
REMARK  110  A    between atoms: _283  and  _284
REMARK  111  A    between atoms: _283  and  _286
REMARK  112  A    between atoms: _286  and  _287
REMARK  113  A    between atoms: _292  and  _294
REMARK  114  A    between atoms: _294  and  _295
REMARK  115  A    between atoms: _294  and  _297
REMARK  116  A    between atoms: _297  and  _298
REMARK  117  A    between atoms: _298  and  _299
REMARK  118  A    between atoms: _302  and  _304
REMARK  119  A    between atoms: _304  and  _305
REMARK  120  A    between atoms: _304  and  _307
REMARK  121  A    between atoms: _307  and  _308
REMARK  122  A    between atoms: _311  and  _313
REMARK  123  A    between atoms: _313  and  _314
REMARK  124  A    between atoms: _313  and  _316
REMARK  125  A    between atoms: _319  and  _321
REMARK  126  A    between atoms: _321  and  _322
REMARK  127  A    between atoms: _321  and  _324
REMARK  128  A    between atoms: _324  and  _325
REMARK  129  A    between atoms: _325  and  _326
REMARK  130  A    between atoms: _326  and  _327
REMARK  131  A    between atoms: _336  and  _338
REMARK  132  A    between atoms: _338  and  _339
REMARK  133  A    between atoms: _338  and  _341
REMARK  134  A    between atoms: _341  and  _342
REMARK  135  A    between atoms: _344  and  _346
REMARK  136  A    between atoms: _346  and  _347
REMARK  137  A    between atoms: _346  and  _349
REMARK  138  A    between atoms: _349  and  _350
REMARK  139  A    between atoms: _355  and  _356
REMARK  140  A    between atoms: _358  and  _360
REMARK  141  A    between atoms: _360  and  _361
REMARK  142  A    between atoms: _360  and  _363
REMARK  143  A    between atoms: _365  and  _367
REMARK  144  A    between atoms: _367  and  _368
REMARK  145  A    between atoms: _370  and  _372
REMARK  146  A    between atoms: _372  and  _373
REMARK  147  A    between atoms: _372  and  _375
REMARK  148  A    between atoms: _375  and  _376
REMARK  149  A    between atoms: _376  and  _377
REMARK  150  A    between atoms: _379  and  _381
REMARK  151  A    between atoms: _381  and  _382
REMARK  152  A    between atoms: _381  and  _384
REMARK  153  A    between atoms: _384  and  _385
REMARK  154  A    between atoms: _385  and  _386
REMARK  155  A    between atoms: _389  and  _391
REMARK  156  A    between atoms: _391  and  _392
REMARK  157  A    between atoms: _395  and  _397
REMARK  158  A    between atoms: _397  and  _398
REMARK  159  A    between atoms: _397  and  _400
REMARK  160  A    between atoms: _400  and  _401
REMARK  161  A    between atoms: _406  and  _408
REMARK  162  A    between atoms: _408  and  _409
REMARK  163  A    between atoms: _411  and  _413
REMARK  164  A    between atoms: _413  and  _414
REMARK  165  A    between atoms: _416  and  _418
REMARK  166  A    between atoms: _418  and  _419
REMARK  167  A    between atoms: _418  and  _421
REMARK  168  A    between atoms: _421  and  _422
REMARK  169  A    between atoms: _427  and  _428
REMARK  170  A    between atoms: _430  and  _432
REMARK  171  A    between atoms: _432  and  _433
REMARK  172  A    between atoms: _432  and  _435
REMARK  173  A    between atoms: _435  and  _436
REMARK  174  A    between atoms: _439  and  _441
REMARK  175  A    between atoms: _441  and  _442
REMARK  176  A    between atoms: _441  and  _444
REMARK  177  A    between atoms: _444  and  _445
REMARK  178  A    between atoms: _451  and  _453
REMARK  179  A    between atoms: _453  and  _454
REMARK  180  A    between atoms: _453  and  _456
REMARK  181  A    between atoms: _458  and  _460
REMARK  182  A    between atoms: _460  and  _461
REMARK  183  A    between atoms: _463  and  _465
REMARK  184  A    between atoms: _465  and  _466
REMARK  185  A    between atoms: _465  and  _468
REMARK  186  A    between atoms: _468  and  _469
REMARK  187  A    between atoms: _475  and  _477
REMARK  188  A    between atoms: _477  and  _478
REMARK  189  A    between atoms: _477  and  _480
REMARK  190  A    between atoms: _480  and  _481
REMARK  191  A    between atoms: _481  and  _482
REMARK  192  A    between atoms: _487  and  _489
REMARK  193  A    between atoms: _489  and  _490
REMARK  194  A    between atoms: _492  and  _494
REMARK  195  A    between atoms: _494  and  _495
REMARK  196  A    between atoms: _494  and  _497
REMARK  197  A    between atoms: _497  and  _498
REMARK  198  A    between atoms: _498  and  _499
REMARK  199  A    between atoms: _499  and  _500
REMARK  200  A    between atoms: _509  and  _511
REMARK  201  A    between atoms: _511  and  _512
REMARK  202  A    between atoms: _511  and  _514
REMARK  203  A    between atoms: _516  and  _518
REMARK  204  A    between atoms: _518  and  _519
REMARK  205  A    between atoms: _518  and  _521
REMARK  206  A    between atoms: _521  and  _522
REMARK  207  A    between atoms: _527  and  _529
REMARK  208  A    between atoms: _529  and  _530
REMARK  209  A    between atoms: _529  and  _532
REMARK  210  A    between atoms: _532  and  _533
REMARK  211  A    between atoms: _533  and  _534
REMARK  212  A    between atoms: _534  and  _535
REMARK  213  A    between atoms: _535  and  _536
REMARK  214  A    between atoms: _540  and  _542
REMARK  215  A    between atoms: _542  and  _543
REMARK  216  A    between atoms: _542  and  _545
REMARK  217  A    between atoms: _545  and  _546
REMARK  218  A    between atoms: _549  and  _551
REMARK  219  A    between atoms: _551  and  _552
REMARK  220  A    between atoms: _551  and  _554
REMARK  221  A    between atoms: _557  and  _559
REMARK  222  A    between atoms: _559  and  _560
REMARK  223  A    between atoms: _559  and  _562
REMARK  224  A    between atoms: _562  and  _563
REMARK  225  A    between atoms: _563  and  _565
REMARK  226  A    between atoms: _565  and  ZN_690
REMARK  227  A    between atoms: _566  and  _568
REMARK  228  A    between atoms: _568  and  _569
REMARK  229  A    between atoms: _568  and  _571
REMARK  230  A    between atoms: _571  and  _572
REMARK  231  A    between atoms: _572  and  ZN_690
REMARK  232  A    between atoms: _573  and  _575
REMARK  233  A    between atoms: _575  and  _576
REMARK  234  A    between atoms: _575  and  _578
REMARK  235  A    between atoms: _578  and  _579
REMARK  236  A    between atoms: _584  and  _585
REMARK  237  A    between atoms: _587  and  _589
REMARK  238  A    between atoms: _589  and  _590
REMARK  239  A    between atoms: _589  and  _592
REMARK  240  A    between atoms: _592  and  _593
REMARK  241  A    between atoms: _599  and  _601
REMARK  242  A    between atoms: _601  and  _602
REMARK  243  A    between atoms: _601  and  _604
REMARK  244  A    between atoms: _604  and  _605
REMARK  245  A    between atoms: _615  and  _617
REMARK  246  A    between atoms: _617  and  _618
REMARK  247  A    between atoms: _617  and  _620
REMARK  248  A    between atoms: _620  and  _621
REMARK  249  A    between atoms: _621  and  _622
REMARK  250  A    between atoms: _627  and  _629
REMARK  251  A    between atoms: _629  and  _630
REMARK  252  A    between atoms: _629  and  _632
REMARK  253  A    between atoms: _632  and  _633
REMARK  254  A    between atoms: _636  and  _638
REMARK  255  A    between atoms: _638  and  _639
REMARK  256  A    between atoms: _638  and  _641
REMARK  257  A    between atoms: _641  and  _642
REMARK  258  A    between atoms: _642  and  _643
REMARK  259  A    between atoms: _643  and  _644
REMARK  260  A    between atoms: _644  and  _645
REMARK  261  A    between atoms: _649  and  _651
REMARK  262  A    between atoms: _651  and  _652
REMARK  263  A    between atoms: _651  and  _654
REMARK  264  A    between atoms: _654  and  _655
REMARK  265  A    between atoms: _655  and  _656
REMARK  266  A    between atoms: _656  and  _657
REMARK  267  A    between atoms: _657  and  _658
REMARK  268  A    between atoms: _662  and  _664
REMARK  269  A    between atoms: _664  and  _665
REMARK  270  A    between atoms: _664  and  _667
REMARK  271  A    between atoms: _667  and  _668
REMARK  272  A    between atoms: _673  and  _674
REMARK  273  A    between atoms: _676  and  _678
REMARK  274  A    between atoms: _678  and  _679
REMARK  275  A    between atoms: _678  and  _681
REMARK  276  A    between atoms: _681  and  _682
REMARK  277  A    between atoms: _687  and  _688
REMARK                            x       y       z     vdW  Elec       q    Type
REMARK                         _______ _______ _______ _____ _____    ______ ____
ROOT
ATOM      1  CA  SER A   1     204.614 118.294  29.391  0.00  0.00    +0.163 C 
ENDROOT
BRANCH   1   2
ATOM      2  N   SER A   1     205.115 118.144  30.760  0.00  0.00    -0.237 NA
ATOM      3  H   SER A   1     205.281 118.998  31.330  0.00  0.00    +0.142 HD
ENDBRANCH   1   2
BRANCH   1   4
ATOM      4  C   SER A   1     205.684 117.796  28.446  0.00  0.00    +0.227 C 
ATOM      5  O   SER A   1     205.386 117.231  27.403  0.00  0.00    -0.287 OA
ENDBRANCH   1   4
BRANCH   1   6
ATOM      6  CB  SER A   1     204.311 119.748  29.072  0.00  0.00    +0.162 C 
BRANCH   6   7
ATOM      7  OG  SER A   1     203.198 120.225  29.805  0.00  0.00    -0.380 OA
ATOM      8  H   SER A   1     202.400 119.684  29.581  0.00  0.00    +0.211 HD
ENDBRANCH   6   7
ENDBRANCH   1   6
TORSDOF 4
REMARK  Name = ../refined-set-2016/1o1s/1o1s_pocket.pdb
REMARK  277 active torsions:
REMARK  status: ('A' for Active; 'I' for Inactive)
REMARK    1  A    between atoms: _1  and  _3
REMARK    2  A    between atoms: _3  and  _4
REMARK    3  A    between atoms: _7  and  _9
REMARK    4  A    between atoms: _9  and  _10
REMARK    5  A    between atoms: _9  and  _12
REMARK    6  A    between atoms: _12  and  _13
REMARK    7  A    between atoms: _18  and  _19
REMARK    8  A    between atoms: _21  and  _23
REMARK    9  A    between atoms: _23  and  _24
REMARK   10  A    between atoms: _23  and  _26
REMARK   11  A    between atoms: _26  and  _27
REMARK   12  A    between atoms: _27  and  _28
REMARK   13  A    between atoms: _28  and  _29
REMARK   14  A    between atoms: _29  and  _30
REMARK   15  A    between atoms: _34  and  _36
REMARK   16  A    between atoms: _36  and  _37
REMARK   17  A    between atoms: _36  and  _39
REMARK   18  A    between atoms: _39  and  _40
REMARK   19  A    between atoms: _45  and  _47
REMARK   20  A    between atoms: _47  and  _48
REMARK   21  A    between atoms: _47  and  _50
REMARK   22  A    between atoms: _50  and  _51
REMARK   23  A    between atoms: _56  and  _57
REMARK   24  A    between atoms: _59  and  _61
REMARK   25  A    between atoms: _61  and  _62
REMARK   26  A    between atoms: _61  and  _64
REMARK   27  A    between atoms: _64  and  _65
REMARK   28  A    between atoms: _65  and  _66
REMARK   29  A    between atoms: _71  and  _73
REMARK   30  A    between atoms: _73  and  _74
REMARK   31  A    between atoms: _73  and  _76
REMARK   32  A    between atoms: _76  and  _77
REMARK   33  A    between atoms: _80  and  _82
REMARK   34  A    between atoms: _82  and  _83
REMARK   35  A    between atoms: _82  and  _85
REMARK   36  A    between atoms: _85  and  _86
REMARK   37  A    between atoms: _86  and  _87
REMARK   38  A    between atoms: _87  and  _88
REMARK   39  A    between atoms: _88  and  _89
REMARK   40  A    between atoms: _93  and  _95
REMARK   41  A    between atoms: _95  and  _96
REMARK   42  A    between atoms: _95  and  _98
REMARK   43  A    between atoms: _98  and  _99
REMARK   44  A    between atoms: _104  and  _106
REMARK   45  A    between atoms: _106  and  _107
REMARK   46  A    between atoms: _106  and  _109
REMARK   47  A    between atoms: _109  and  _110
REMARK   48  A    between atoms: _115  and  _116
REMARK   49  A    between atoms: _118  and  _120
REMARK   50  A    between atoms: _120  and  _121
REMARK   51  A    between atoms: _120  and  _123
REMARK   52  A    between atoms: _123  and  _124
REMARK   53  A    between atoms: _129  and  _131
REMARK   54  A    between atoms: _131  and  _132
REMARK   55  A    between atoms: _135  and  _137
REMARK   56  A    between atoms: _137  and  _138
REMARK   57  A    between atoms: _137  and  _140
REMARK   58  A    between atoms: _140  and  _141
REMARK   59  A    between atoms: _141  and  _142
REMARK   60  A    between atoms: _147  and  _149
REMARK   61  A    between atoms: _149  and  _150
REMARK   62  A    between atoms: _149  and  _152
REMARK   63  A    between atoms: _152  and  _153
REMARK   64  A    between atoms: _155  and  _157
REMARK   65  A    between atoms: _157  and  _158
REMARK   66  A    between atoms: _157  and  _160
REMARK   67  A    between atoms: _160  and  _161
REMARK   68  A    between atoms: _164  and  _166
REMARK   69  A    between atoms: _166  and  _167
REMARK   70  A    between atoms: _170  and  _172
REMARK   71  A    between atoms: _172  and  _173
REMARK   72  A    between atoms: _172  and  _175
REMARK   73  A    between atoms: _175  and  _176
REMARK   74  A    between atoms: _178  and  _180
REMARK   75  A    between atoms: _180  and  _181
REMARK   76  A    between atoms: _180  and  _183
REMARK   77  A    between atoms: _183  and  _184
REMARK   78  A    between atoms: _194  and  _196
REMARK   79  A    between atoms: _196  and  _197
REMARK   80  A    between atoms: _196  and  _199
REMARK   81  A    between atoms: _199  and  _200
REMARK   82  A    between atoms: _210  and  _212
REMARK   83  A    between atoms: _212  and  _213
REMARK   84  A    between atoms: _212  and  _215
REMARK   85  A    between atoms: _215  and  _216
REMARK   86  A    between atoms: _221  and  _223
REMARK   87  A    between atoms: _223  and  _224
REMARK   88  A    between atoms: _223  and  _226
REMARK   89  A    between atoms: _226  and  _227
REMARK   90  A    between atoms: _230  and  _232
REMARK   91  A    between atoms: _232  and  _233
REMARK   92  A    between atoms: _237  and  _238
REMARK   93  A    between atoms: _243  and  _245
REMARK   94  A    between atoms: _245  and  _246
REMARK   95  A    between atoms: _245  and  _248
REMARK   96  A    between atoms: _248  and  _249
REMARK   97  A    between atoms: _252  and  _254
REMARK   98  A    between atoms: _254  and  _255
REMARK   99  A    between atoms: _254  and  _257
REMARK  100  A    between atoms: _257  and  _258
REMARK  101  A    between atoms: _263  and  _264
REMARK  102  A    between atoms: _266  and  _268
REMARK  103  A    between atoms: _268  and  _269
REMARK  104  A    between atoms: _272  and  _274
REMARK  105  A    between atoms: _274  and  _275
REMARK  106  A    between atoms: _274  and  _277
REMARK  107  A    between atoms: _277  and  _278
REMARK  108  A    between atoms: _278  and  _279
REMARK  109  A    between atoms: _281  and  _283
REMARK  110  A    between atoms: _283  and  _284
REMARK  111  A    between atoms: _283  and  _286
REMARK  112  A    between atoms: _286  and  _287
REMARK  113  A    between atoms: _292  and  _294
REMARK  114  A    between atoms: _294  and  _295
REMARK  115  A    between atoms: _294  and  _297
REMARK  116  A    between atoms: _297  and  _298
REMARK  117  A    between atoms: _298  and  _299
REMARK  118  A    between atoms: _302  and  _304
REMARK  119  A    between atoms: _304  and  _305
REMARK  120  A    between atoms: _304  and  _307
REMARK  121  A    between atoms: _307  and  _308
REMARK  122  A    between atoms: _311  and  _313
REMARK  123  A    between atoms: _313  and  _314
REMARK  124  A    between atoms: _313  and  _316
REMARK  125  A    between atoms: _319  and  _321
REMARK  126  A    between atoms: _321  and  _322
REMARK  127  A    between atoms: _321  and  _324
REMARK  128  A    between atoms: _324  and  _325
REMARK  129  A    between atoms: _325  and  _326
REMARK  130  A    between atoms: _326  and  _327
REMARK  131  A    between atoms: _336  and  _338
REMARK  132  A    between atoms: _338  and  _339
REMARK  133  A    between atoms: _338  and  _341
REMARK  134  A    between atoms: _341  and  _342
REMARK  135  A    between atoms: _344  and  _346
REMARK  136  A    between atoms: _346  and  _347
REMARK  137  A    between atoms: _346  and  _349
REMARK  138  A    between atoms: _349  and  _350
REMARK  139  A    between atoms: _355  and  _356
REMARK  140  A    between atoms: _358  and  _360
REMARK  141  A    between atoms: _360  and  _361
REMARK  142  A    between atoms: _360  and  _363
REMARK  143  A    between atoms: _365  and  _367
REMARK  144  A    between atoms: _367  and  _368
REMARK  145  A    between atoms: _370  and  _372
REMARK  146  A    between atoms: _372  and  _373
REMARK  147  A    between atoms: _372  and  _375
REMARK  148  A    between atoms: _375  and  _376
REMARK  149  A    between atoms: _376  and  _377
REMARK  150  A    between atoms: _379  and  _381
REMARK  151  A    between atoms: _381  and  _382
REMARK  152  A    between atoms: _381  and  _384
REMARK  153  A    between atoms: _384  and  _385
REMARK  154  A    between atoms: _385  and  _386
REMARK  155  A    between atoms: _389  and  _391
REMARK  156  A    between atoms: _391  and  _392
REMARK  157  A    between atoms: _395  and  _397
REMARK  158  A    between atoms: _397  and  _398
REMARK  159  A    between atoms: _397  and  _400
REMARK  160  A    between atoms: _400  and  _401
REMARK  161  A    between atoms: _406  and  _408
REMARK  162  A    between atoms: _408  and  _409
REMARK  163  A    between atoms: _411  and  _413
REMARK  164  A    between atoms: _413  and  _414
REMARK  165  A    between atoms: _416  and  _418
REMARK  166  A    between atoms: _418  and  _419
REMARK  167  A    between atoms: _418  and  _421
REMARK  168  A    between atoms: _421  and  _422
REMARK  169  A    between atoms: _427  and  _428
REMARK  170  A    between atoms: _430  and  _432
REMARK  171  A    between atoms: _432  and  _433
REMARK  172  A    between atoms: _432  and  _435
REMARK  173  A    between atoms: _435  and  _436
REMARK  174  A    between atoms: _439  and  _441
REMARK  175  A    between atoms: _441  and  _442
REMARK  176  A    between atoms: _441  and  _444
REMARK  177  A    between atoms: _444  and  _445
REMARK  178  A    between atoms: _451  and  _453
REMARK  179  A    between atoms: _453  and  _454
REMARK  180  A    between atoms: _453  and  _456
REMARK  181  A    between atoms: _458  and  _460
REMARK  182  A    between atoms: _460  and  _461
REMARK  183  A    between atoms: _463  and  _465
REMARK  184  A    between atoms: _465  and  _466
REMARK  185  A    between atoms: _465  and  _468
REMARK  186  A    between atoms: _468  and  _469
REMARK  187  A    between atoms: _475  and  _477
REMARK  188  A    between atoms: _477  and  _478
REMARK  189  A    between atoms: _477  and  _480
REMARK  190  A    between atoms: _480  and  _481
REMARK  191  A    between atoms: _481  and  _482
REMARK  192  A    between atoms: _487  and  _489
REMARK  193  A    between atoms: _489  and  _490
REMARK  194  A    between atoms: _492  and  _494
REMARK  195  A    between atoms: _494  and  _495
REMARK  196  A    between atoms: _494  and  _497
REMARK  197  A    between atoms: _497  and  _498
REMARK  198  A    between atoms: _498  and  _499
REMARK  199  A    between atoms: _499  and  _500
REMARK  200  A    between atoms: _509  and  _511
REMARK  201  A    between atoms: _511  and  _512
REMARK  202  A    between atoms: _511  and  _514
REMARK  203  A    between atoms: _516  and  _518
REMARK  204  A    between atoms: _518  and  _519
REMARK  205  A    between atoms: _518  and  _521
REMARK  206  A    between atoms: _521  and  _522
REMARK  207  A    between atoms: _527  and  _529
REMARK  208  A    between atoms: _529  and  _530
REMARK  209  A    between atoms: _529  and  _532
REMARK  210  A    between atoms: _532  and  _533
REMARK  211  A    between atoms: _533  and  _534
REMARK  212  A    between atoms: _534  and  _535
REMARK  213  A    between atoms: _535  and  _536
REMARK  214  A    between atoms: _540  and  _542
REMARK  215  A    between atoms: _542  and  _543
REMARK  216  A    between atoms: _542  and  _545
REMARK  217  A    between atoms: _545  and  _546
REMARK  218  A    between atoms: _549  and  _551
REMARK  219  A    between atoms: _551  and  _552
REMARK  220  A    between atoms: _551  and  _554
REMARK  221  A    between atoms: _557  and  _559
REMARK  222  A    between atoms: _559  and  _560
REMARK  223  A    between atoms: _559  and  _562
REMARK  224  A    between atoms: _562  and  _563
REMARK  225  A    between atoms: _563  and  _565
REMARK  226  A    between atoms: _565  and  ZN_690
REMARK  227  A    between atoms: _566  and  _568
REMARK  228  A    between atoms: _568  and  _569
REMARK  229  A    between atoms: _568  and  _571
REMARK  230  A    between atoms: _571  and  _572
REMARK  231  A    between atoms: _572  and  ZN_690
REMARK  232  A    between atoms: _573  and  _575
REMARK  233  A    between atoms: _575  and  _576
REMARK  234  A    between atoms: _575  and  _578
REMARK  235  A    between atoms: _578  and  _579
REMARK  236  A    between atoms: _584  and  _585
REMARK  237  A    between atoms: _587  and  _589
REMARK  238  A    between atoms: _589  and  _590
REMARK  239  A    between atoms: _589  and  _592
REMARK  240  A    between atoms: _592  and  _593
REMARK  241  A    between atoms: _599  and  _601
REMARK  242  A    between atoms: _601  and  _602
REMARK  243  A    between atoms: _601  and  _604
REMARK  244  A    between atoms: _604  and  _605
REMARK  245  A    between atoms: _615  and  _617
REMARK  246  A    between atoms: _617  and  _618
REMARK  247  A    between atoms: _617  and  _620
REMARK  248  A    between atoms: _620  and  _621
REMARK  249  A    between atoms: _621  and  _622
REMARK  250  A    between atoms: _627  and  _629
REMARK  251  A    between atoms: _629  and  _630
REMARK  252  A    between atoms: _629  and  _632
REMARK  253  A    between atoms: _632  and  _633
REMARK  254  A    between atoms: _636  and  _638
REMARK  255  A    between atoms: _638  and  _639
REMARK  256  A    between atoms: _638  and  _641
REMARK  257  A    between atoms: _641  and  _642
REMARK  258  A    between atoms: _642  and  _643
REMARK  259  A    between atoms: _643  and  _644
REMARK  260  A    between atoms: _644  and  _645
REMARK  261  A    between atoms: _649  and  _651
REMARK  262  A    between atoms: _651  and  _652
REMARK  263  A    between atoms: _651  and  _654
REMARK  264  A    between atoms: _654  and  _655
REMARK  265  A    between atoms: _655  and  _656
REMARK  266  A    between atoms: _656  and  _657
REMARK  267  A    between atoms: _657  and  _658
REMARK  268  A    between atoms: _662  and  _664
REMARK  269  A    between atoms: _664  and  _665
REMARK  270  A    between atoms: _664  and  _667
REMARK  271  A    between atoms: _667  and  _668
REMARK  272  A    between atoms: _673  and  _674
REMARK  273  A    between atoms: _676  and  _678
REMARK  274  A    between atoms: _678  and  _679
REMARK  275  A    between atoms: _678  and  _681
REMARK  276  A    between atoms: _681  and  _682
REMARK  277  A    between atoms: _687  and  _688
REMARK                            x       y       z     vdW  Elec       q    Type
REMARK                         _______ _______ _______ _____ _____    ______ ____
ROOT
ATOM      1  CA  LEU A   1     182.208 135.380  30.176  0.00  0.00    +0.133 C 
ENDROOT
BRANCH   1   2
ATOM      2  N   LEU A   1     183.120 136.497  30.000  0.00  0.00    -0.239 NA
ATOM      3  H   LEU A   1     182.866 137.415  30.419  0.00  0.00    +0.142 HD
ENDBRANCH   1   2
BRANCH   1   4
ATOM      4  C   LEU A   1     180.880 135.669  29.504  0.00  0.00    +0.224 C 
ATOM      5  O   LEU A   1     179.878 135.030  29.792  0.00  0.00    -0.287 OA
ENDBRANCH   1   4
BRANCH   1   6
ATOM      6  CB  LEU A   1     182.029 135.064  31.666  0.00  0.00    +0.025 C 
BRANCH   6   7
ATOM      7  CG  LEU A   1     183.155 134.186  32.243  0.00  0.00    +0.002 C 
ATOM      8  CD2 LEU A   1     183.199 134.303  33.718  0.00  0.00    +0.000 C 
ATOM      9  CD1 LEU A   1     182.968 132.733  31.872  0.00  0.00    +0.000 C 
ENDBRANCH   6   7
ENDBRANCH   1   6
TORSDOF 4
REMARK  Name = ../refined-set-2016/1o1s/1o1s_pocket.pdb
REMARK  277 active torsions:
REMARK  status: ('A' for Active; 'I' for Inactive)
REMARK    1  A    between atoms: _1  and  _3
REMARK    2  A    between atoms: _3  and  _4
REMARK    3  A    between atoms: _7  and  _9
REMARK    4  A    between atoms: _9  and  _10
REMARK    5  A    between atoms: _9  and  _12
REMARK    6  A    between atoms: _12  and  _13
REMARK    7  A    between atoms: _18  and  _19
REMARK    8  A    between atoms: _21  and  _23
REMARK    9  A    between atoms: _23  and  _24
REMARK   10  A    between atoms: _23  and  _26
REMARK   11  A    between atoms: _26  and  _27
REMARK   12  A    between atoms: _27  and  _28
REMARK   13  A    between atoms: _28  and  _29
REMARK   14  A    between atoms: _29  and  _30
REMARK   15  A    between atoms: _34  and  _36
REMARK   16  A    between atoms: _36  and  _37
REMARK   17  A    between atoms: _36  and  _39
REMARK   18  A    between atoms: _39  and  _40
REMARK   19  A    between atoms: _45  and  _47
REMARK   20  A    between atoms: _47  and  _48
REMARK   21  A    between atoms: _47  and  _50
REMARK   22  A    between atoms: _50  and  _51
REMARK   23  A    between atoms: _56  and  _57
REMARK   24  A    between atoms: _59  and  _61
REMARK   25  A    between atoms: _61  and  _62
REMARK   26  A    between atoms: _61  and  _64
REMARK   27  A    between atoms: _64  and  _65
REMARK   28  A    between atoms: _65  and  _66
REMARK   29  A    between atoms: _71  and  _73
REMARK   30  A    between atoms: _73  and  _74
REMARK   31  A    between atoms: _73  and  _76
REMARK   32  A    between atoms: _76  and  _77
REMARK   33  A    between atoms: _80  and  _82
REMARK   34  A    between atoms: _82  and  _83
REMARK   35  A    between atoms: _82  and  _85
REMARK   36  A    between atoms: _85  and  _86
REMARK   37  A    between atoms: _86  and  _87
REMARK   38  A    between atoms: _87  and  _88
REMARK   39  A    between atoms: _88  and  _89
REMARK   40  A    between atoms: _93  and  _95
REMARK   41  A    between atoms: _95  and  _96
REMARK   42  A    between atoms: _95  and  _98
REMARK   43  A    between atoms: _98  and  _99
REMARK   44  A    between atoms: _104  and  _106
REMARK   45  A    between atoms: _106  and  _107
REMARK   46  A    between atoms: _106  and  _109
REMARK   47  A    between atoms: _109  and  _110
REMARK   48  A    between atoms: _115  and  _116
REMARK   49  A    between atoms: _118  and  _120
REMARK   50  A    between atoms: _120  and  _121
REMARK   51  A    between atoms: _120  and  _123
REMARK   52  A    between atoms: _123  and  _124
REMARK   53  A    between atoms: _129  and  _131
REMARK   54  A    between atoms: _131  and  _132
REMARK   55  A    between atoms: _135  and  _137
REMARK   56  A    between atoms: _137  and  _138
REMARK   57  A    between atoms: _137  and  _140
REMARK   58  A    between atoms: _140  and  _141
REMARK   59  A    between atoms: _141  and  _142
REMARK   60  A    between atoms: _147  and  _149
REMARK   61  A    between atoms: _149  and  _150
REMARK   62  A    between atoms: _149  and  _152
REMARK   63  A    between atoms: _152  and  _153
REMARK   64  A    between atoms: _155  and  _157
REMARK   65  A    between atoms: _157  and  _158
REMARK   66  A    between atoms: _157  and  _160
REMARK   67  A    between atoms: _160  and  _161
REMARK   68  A    between atoms: _164  and  _166
REMARK   69  A    between atoms: _166  and  _167
REMARK   70  A    between atoms: _170  and  _172
REMARK   71  A    between atoms: _172  and  _173
REMARK   72  A    between atoms: _172  and  _175
REMARK   73  A    between atoms: _175  and  _176
REMARK   74  A    between atoms: _178  and  _180
REMARK   75  A    between atoms: _180  and  _181
REMARK   76  A    between atoms: _180  and  _183
REMARK   77  A    between atoms: _183  and  _184
REMARK   78  A    between atoms: _194  and  _196
REMARK   79  A    between atoms: _196  and  _197
REMARK   80  A    between atoms: _196  and  _199
REMARK   81  A    between atoms: _199  and  _200
REMARK   82  A    between atoms: _210  and  _212
REMARK   83  A    between atoms: _212  and  _213
REMARK   84  A    between atoms: _212  and  _215
REMARK   85  A    between atoms: _215  and  _216
REMARK   86  A    between atoms: _221  and  _223
REMARK   87  A    between atoms: _223  and  _224
REMARK   88  A    between atoms: _223  and  _226
REMARK   89  A    between atoms: _226  and  _227
REMARK   90  A    between atoms: _230  and  _232
REMARK   91  A    between atoms: _232  and  _233
REMARK   92  A    between atoms: _237  and  _238
REMARK   93  A    between atoms: _243  and  _245
REMARK   94  A    between atoms: _245  and  _246
REMARK   95  A    between atoms: _245  and  _248
REMARK   96  A    between atoms: _248  and  _249
REMARK   97  A    between atoms: _252  and  _254
REMARK   98  A    between atoms: _254  and  _255
REMARK   99  A    between atoms: _254  and  _257
REMARK  100  A    between atoms: _257  and  _258
REMARK  101  A    between atoms: _263  and  _264
REMARK  102  A    between atoms: _266  and  _268
REMARK  103  A    between atoms: _268  and  _269
REMARK  104  A    between atoms: _272  and  _274
REMARK  105  A    between atoms: _274  and  _275
REMARK  106  A    between atoms: _274  and  _277
REMARK  107  A    between atoms: _277  and  _278
REMARK  108  A    between atoms: _278  and  _279
REMARK  109  A    between atoms: _281  and  _283
REMARK  110  A    between atoms: _283  and  _284
REMARK  111  A    between atoms: _283  and  _286
REMARK  112  A    between atoms: _286  and  _287
REMARK  113  A    between atoms: _292  and  _294
REMARK  114  A    between atoms: _294  and  _295
REMARK  115  A    between atoms: _294  and  _297
REMARK  116  A    between atoms: _297  and  _298
REMARK  117  A    between atoms: _298  and  _299
REMARK  118  A    between atoms: _302  and  _304
REMARK  119  A    between atoms: _304  and  _305
REMARK  120  A    between atoms: _304  and  _307
REMARK  121  A    between atoms: _307  and  _308
REMARK  122  A    between atoms: _311  and  _313
REMARK  123  A    between atoms: _313  and  _314
REMARK  124  A    between atoms: _313  and  _316
REMARK  125  A    between atoms: _319  and  _321
REMARK  126  A    between atoms: _321  and  _322
REMARK  127  A    between atoms: _321  and  _324
REMARK  128  A    between atoms: _324  and  _325
REMARK  129  A    between atoms: _325  and  _326
REMARK  130  A    between atoms: _326  and  _327
REMARK  131  A    between atoms: _336  and  _338
REMARK  132  A    between atoms: _338  and  _339
REMARK  133  A    between atoms: _338  and  _341
REMARK  134  A    between atoms: _341  and  _342
REMARK  135  A    between atoms: _344  and  _346
REMARK  136  A    between atoms: _346  and  _347
REMARK  137  A    between atoms: _346  and  _349
REMARK  138  A    between atoms: _349  and  _350
REMARK  139  A    between atoms: _355  and  _356
REMARK  140  A    between atoms: _358  and  _360
REMARK  141  A    between atoms: _360  and  _361
REMARK  142  A    between atoms: _360  and  _363
REMARK  143  A    between atoms: _365  and  _367
REMARK  144  A    between atoms: _367  and  _368
REMARK  145  A    between atoms: _370  and  _372
REMARK  146  A    between atoms: _372  and  _373
REMARK  147  A    between atoms: _372  and  _375
REMARK  148  A    between atoms: _375  and  _376
REMARK  149  A    between atoms: _376  and  _377
REMARK  150  A    between atoms: _379  and  _381
REMARK  151  A    between atoms: _381  and  _382
REMARK  152  A    between atoms: _381  and  _384
REMARK  153  A    between atoms: _384  and  _385
REMARK  154  A    between atoms: _385  and  _386
REMARK  155  A    between atoms: _389  and  _391
REMARK  156  A    between atoms: _391  and  _392
REMARK  157  A    between atoms: _395  and  _397
REMARK  158  A    between atoms: _397  and  _398
REMARK  159  A    between atoms: _397  and  _400
REMARK  160  A    between atoms: _400  and  _401
REMARK  161  A    between atoms: _406  and  _408
REMARK  162  A    between atoms: _408  and  _409
REMARK  163  A    between atoms: _411  and  _413
REMARK  164  A    between atoms: _413  and  _414
REMARK  165  A    between atoms: _416  and  _418
REMARK  166  A    between atoms: _418  and  _419
REMARK  167  A    between atoms: _418  and  _421
REMARK  168  A    between atoms: _421  and  _422
REMARK  169  A    between atoms: _427  and  _428
REMARK  170  A    between atoms: _430  and  _432
REMARK  171  A    between atoms: _432  and  _433
REMARK  172  A    between atoms: _432  and  _435
REMARK  173  A    between atoms: _435  and  _436
REMARK  174  A    between atoms: _439  and  _441
REMARK  175  A    between atoms: _441  and  _442
REMARK  176  A    between atoms: _441  and  _444
REMARK  177  A    between atoms: _444  and  _445
REMARK  178  A    between atoms: _451  and  _453
REMARK  179  A    between atoms: _453  and  _454
REMARK  180  A    between atoms: _453  and  _456
REMARK  181  A    between atoms: _458  and  _460
REMARK  182  A    between atoms: _460  and  _461
REMARK  183  A    between atoms: _463  and  _465
REMARK  184  A    between atoms: _465  and  _466
REMARK  185  A    between atoms: _465  and  _468
REMARK  186  A    between atoms: _468  and  _469
REMARK  187  A    between atoms: _475  and  _477
REMARK  188  A    between atoms: _477  and  _478
REMARK  189  A    between atoms: _477  and  _480
REMARK  190  A    between atoms: _480  and  _481
REMARK  191  A    between atoms: _481  and  _482
REMARK  192  A    between atoms: _487  and  _489
REMARK  193  A    between atoms: _489  and  _490
REMARK  194  A    between atoms: _492  and  _494
REMARK  195  A    between atoms: _494  and  _495
REMARK  196  A    between atoms: _494  and  _497
REMARK  197  A    between atoms: _497  and  _498
REMARK  198  A    between atoms: _498  and  _499
REMARK  199  A    between atoms: _499  and  _500
REMARK  200  A    between atoms: _509  and  _511
REMARK  201  A    between atoms: _511  and  _512
REMARK  202  A    between atoms: _511  and  _514
REMARK  203  A    between atoms: _516  and  _518
REMARK  204  A    between atoms: _518  and  _519
REMARK  205  A    between atoms: _518  and  _521
REMARK  206  A    between atoms: _521  and  _522
REMARK  207  A    between atoms: _527  and  _529
REMARK  208  A    between atoms: _529  and  _530
REMARK  209  A    between atoms: _529  and  _532
REMARK  210  A    between atoms: _532  and  _533
REMARK  211  A    between atoms: _533  and  _534
REMARK  212  A    between atoms: _534  and  _535
REMARK  213  A    between atoms: _535  and  _536
REMARK  214  A    between atoms: _540  and  _542
REMARK  215  A    between atoms: _542  and  _543
REMARK  216  A    between atoms: _542  and  _545
REMARK  217  A    between atoms: _545  and  _546
REMARK  218  A    between atoms: _549  and  _551
REMARK  219  A    between atoms: _551  and  _552
REMARK  220  A    between atoms: _551  and  _554
REMARK  221  A    between atoms: _557  and  _559
REMARK  222  A    between atoms: _559  and  _560
REMARK  223  A    between atoms: _559  and  _562
REMARK  224  A    between atoms: _562  and  _563
REMARK  225  A    between atoms: _563  and  _565
REMARK  226  A    between atoms: _565  and  ZN_690
REMARK  227  A    between atoms: _566  and  _568
REMARK  228  A    between atoms: _568  and  _569
REMARK  229  A    between atoms: _568  and  _571
REMARK  230  A    between atoms: _571  and  _572
REMARK  231  A    between atoms: _572  and  ZN_690
REMARK  232  A    between atoms: _573  and  _575
REMARK  233  A    between atoms: _575  and  _576
REMARK  234  A    between atoms: _575  and  _578
REMARK  235  A    between atoms: _578  and  _579
REMARK  236  A    between atoms: _584  and  _585
REMARK  237  A    between atoms: _587  and  _589
REMARK  238  A    between atoms: _589  and  _590
REMARK  239  A    between atoms: _589  and  _592
REMARK  240  A    between atoms: _592  and  _593
REMARK  241  A    between atoms: _599  and  _601
REMARK  242  A    between atoms: _601  and  _602
REMARK  243  A    between atoms: _601  and  _604
REMARK  244  A    between atoms: _604  and  _605
REMARK  245  A    between atoms: _615  and  _617
REMARK  246  A    between atoms: _617  and  _618
REMARK  247  A    between atoms: _617  and  _620
REMARK  248  A    between atoms: _620  and  _621
REMARK  249  A    between atoms: _621  and  _622
REMARK  250  A    between atoms: _627  and  _629
REMARK  251  A    between atoms: _629  and  _630
REMARK  252  A    between atoms: _629  and  _632
REMARK  253  A    between atoms: _632  and  _633
REMARK  254  A    between atoms: _636  and  _638
REMARK  255  A    between atoms: _638  and  _639
REMARK  256  A    between atoms: _638  and  _641
REMARK  257  A    between atoms: _641  and  _642
REMARK  258  A    between atoms: _642  and  _643
REMARK  259  A    between atoms: _643  and  _644
REMARK  260  A    between atoms: _644  and  _645
REMARK  261  A    between atoms: _649  and  _651
REMARK  262  A    between atoms: _651  and  _652
REMARK  263  A    between atoms: _651  and  _654
REMARK  264  A    between atoms: _654  and  _655
REMARK  265  A    between atoms: _655  and  _656
REMARK  266  A    between atoms: _656  and  _657
REMARK  267  A    between atoms: _657  and  _658
REMARK  268  A    between atoms: _662  and  _664
REMARK  269  A    between atoms: _664  and  _665
REMARK  270  A    between atoms: _664  and  _667
REMARK  271  A    between atoms: _667  and  _668
REMARK  272  A    between atoms: _673  and  _674
REMARK  273  A    between atoms: _676  and  _678
REMARK  274  A    between atoms: _678  and  _679
REMARK  275  A    between atoms: _678  and  _681
REMARK  276  A    between atoms: _681  and  _682
REMARK  277  A    between atoms: _687  and  _688
REMARK                            x       y       z     vdW  Elec       q    Type
REMARK                         _______ _______ _______ _____ _____    ______ ____
ROOT
ATOM      1  C   ALA A   1     179.685 132.539  26.572  0.00  0.00    +0.238 C 
ATOM      2  N   SER A   2     179.631 132.690  27.898  0.00  0.00    -0.296 N 
ATOM      3  H   SER A   2     179.688 133.651  28.291  0.00  0.00    +0.150 HD
ATOM      4  O   ALA A   1     179.581 131.450  26.013  0.00  0.00    -0.274 OA
ENDROOT
BRANCH   1   5
ATOM      5  CA  ALA A   1     179.825 133.811  25.749  0.00  0.00    +0.145 C 
ATOM      6  CB  ALA A   1     180.863 133.626  24.654  0.00  0.00    +0.028 C 
BRANCH   5   7
ATOM      7  N   ALA A   1     180.155 134.946  26.603  0.00  0.00    -0.238 NA
ATOM      8  H   ALA A   1     181.117 135.025  26.991  0.00  0.00    +0.142 HD
ENDBRANCH   5   7
ENDBRANCH   1   5
BRANCH   2   9
ATOM      9  CA  SER A   2     179.495 131.559  28.825  0.00  0.00    +0.166 C 
BRANCH   9  10
ATOM     10  C   SER A   2     178.421 131.780  29.878  0.00  0.00    +0.229 C 
ATOM     11  O   SER A   2     178.538 131.268  31.002  0.00  0.00    -0.286 OA
ENDBRANCH   9  10
BRANCH   9  12
ATOM     12  CB  SER A   2     180.812 131.323  29.561  0.00  0.00    +0.165 C 
BRANCH  12  13
ATOM     13  OG  SER A   2     181.868 131.199  28.636  0.00  0.00    -0.380 OA
ATOM     14  H   SER A   2     181.937 132.030  28.103  0.00  0.00    +0.211 HD
ENDBRANCH  12  13
ENDBRANCH   9  12
ENDBRANCH   2   9
TORSDOF 6
REMARK  Name = ../refined-set-2016/1o1s/1o1s_pocket.pdb
REMARK  277 active torsions:
REMARK  status: ('A' for Active; 'I' for Inactive)
REMARK    1  A    between atoms: _1  and  _3
REMARK    2  A    between atoms: _3  and  _4
REMARK    3  A    between atoms: _7  and  _9
REMARK    4  A    between atoms: _9  and  _10
REMARK    5  A    between atoms: _9  and  _12
REMARK    6  A    between atoms: _12  and  _13
REMARK    7  A    between atoms: _18  and  _19
REMARK    8  A    between atoms: _21  and  _23
REMARK    9  A    between atoms: _23  and  _24
REMARK   10  A    between atoms: _23  and  _26
REMARK   11  A    between atoms: _26  and  _27
REMARK   12  A    between atoms: _27  and  _28
REMARK   13  A    between atoms: _28  and  _29
REMARK   14  A    between atoms: _29  and  _30
REMARK   15  A    between atoms: _34  and  _36
REMARK   16  A    between atoms: _36  and  _37
REMARK   17  A    between atoms: _36  and  _39
REMARK   18  A    between atoms: _39  and  _40
REMARK   19  A    between atoms: _45  and  _47
REMARK   20  A    between atoms: _47  and  _48
REMARK   21  A    between atoms: _47  and  _50
REMARK   22  A    between atoms: _50  and  _51
REMARK   23  A    between atoms: _56  and  _57
REMARK   24  A    between atoms: _59  and  _61
REMARK   25  A    between atoms: _61  and  _62
REMARK   26  A    between atoms: _61  and  _64
REMARK   27  A    between atoms: _64  and  _65
REMARK   28  A    between atoms: _65  and  _66
REMARK   29  A    between atoms: _71  and  _73
REMARK   30  A    between atoms: _73  and  _74
REMARK   31  A    between atoms: _73  and  _76
REMARK   32  A    between atoms: _76  and  _77
REMARK   33  A    between atoms: _80  and  _82
REMARK   34  A    between atoms: _82  and  _83
REMARK   35  A    between atoms: _82  and  _85
REMARK   36  A    between atoms: _85  and  _86
REMARK   37  A    between atoms: _86  and  _87
REMARK   38  A    between atoms: _87  and  _88
REMARK   39  A    between atoms: _88  and  _89
REMARK   40  A    between atoms: _93  and  _95
REMARK   41  A    between atoms: _95  and  _96
REMARK   42  A    between atoms: _95  and  _98
REMARK   43  A    between atoms: _98  and  _99
REMARK   44  A    between atoms: _104  and  _106
REMARK   45  A    between atoms: _106  and  _107
REMARK   46  A    between atoms: _106  and  _109
REMARK   47  A    between atoms: _109  and  _110
REMARK   48  A    between atoms: _115  and  _116
REMARK   49  A    between atoms: _118  and  _120
REMARK   50  A    between atoms: _120  and  _121
REMARK   51  A    between atoms: _120  and  _123
REMARK   52  A    between atoms: _123  and  _124
REMARK   53  A    between atoms: _129  and  _131
REMARK   54  A    between atoms: _131  and  _132
REMARK   55  A    between atoms: _135  and  _137
REMARK   56  A    between atoms: _137  and  _138
REMARK   57  A    between atoms: _137  and  _140
REMARK   58  A    between atoms: _140  and  _141
REMARK   59  A    between atoms: _141  and  _142
REMARK   60  A    between atoms: _147  and  _149
REMARK   61  A    between atoms: _149  and  _150
REMARK   62  A    between atoms: _149  and  _152
REMARK   63  A    between atoms: _152  and  _153
REMARK   64  A    between atoms: _155  and  _157
REMARK   65  A    between atoms: _157  and  _158
REMARK   66  A    between atoms: _157  and  _160
REMARK   67  A    between atoms: _160  and  _161
REMARK   68  A    between atoms: _164  and  _166
REMARK   69  A    between atoms: _166  and  _167
REMARK   70  A    between atoms: _170  and  _172
REMARK   71  A    between atoms: _172  and  _173
REMARK   72  A    between atoms: _172  and  _175
REMARK   73  A    between atoms: _175  and  _176
REMARK   74  A    between atoms: _178  and  _180
REMARK   75  A    between atoms: _180  and  _181
REMARK   76  A    between atoms: _180  and  _183
REMARK   77  A    between atoms: _183  and  _184
REMARK   78  A    between atoms: _194  and  _196
REMARK   79  A    between atoms: _196  and  _197
REMARK   80  A    between atoms: _196  and  _199
REMARK   81  A    between atoms: _199  and  _200
REMARK   82  A    between atoms: _210  and  _212
REMARK   83  A    between atoms: _212  and  _213
REMARK   84  A    between atoms: _212  and  _215
REMARK   85  A    between atoms: _215  and  _216
REMARK   86  A    between atoms: _221  and  _223
REMARK   87  A    between atoms: _223  and  _224
REMARK   88  A    between atoms: _223  and  _226
REMARK   89  A    between atoms: _226  and  _227
REMARK   90  A    between atoms: _230  and  _232
REMARK   91  A    between atoms: _232  and  _233
REMARK   92  A    between atoms: _237  and  _238
REMARK   93  A    between atoms: _243  and  _245
REMARK   94  A    between atoms: _245  and  _246
REMARK   95  A    between atoms: _245  and  _248
REMARK   96  A    between atoms: _248  and  _249
REMARK   97  A    between atoms: _252  and  _254
REMARK   98  A    between atoms: _254  and  _255
REMARK   99  A    between atoms: _254  and  _257
REMARK  100  A    between atoms: _257  and  _258
REMARK  101  A    between atoms: _263  and  _264
REMARK  102  A    between atoms: _266  and  _268
REMARK  103  A    between atoms: _268  and  _269
REMARK  104  A    between atoms: _272  and  _274
REMARK  105  A    between atoms: _274  and  _275
REMARK  106  A    between atoms: _274  and  _277
REMARK  107  A    between atoms: _277  and  _278
REMARK  108  A    between atoms: _278  and  _279
REMARK  109  A    between atoms: _281  and  _283
REMARK  110  A    between atoms: _283  and  _284
REMARK  111  A    between atoms: _283  and  _286
REMARK  112  A    between atoms: _286  and  _287
REMARK  113  A    between atoms: _292  and  _294
REMARK  114  A    between atoms: _294  and  _295
REMARK  115  A    between atoms: _294  and  _297
REMARK  116  A    between atoms: _297  and  _298
REMARK  117  A    between atoms: _298  and  _299
REMARK  118  A    between atoms: _302  and  _304
REMARK  119  A    between atoms: _304  and  _305
REMARK  120  A    between atoms: _304  and  _307
REMARK  121  A    between atoms: _307  and  _308
REMARK  122  A    between atoms: _311  and  _313
REMARK  123  A    between atoms: _313  and  _314
REMARK  124  A    between atoms: _313  and  _316
REMARK  125  A    between atoms: _319  and  _321
REMARK  126  A    between atoms: _321  and  _322
REMARK  127  A    between atoms: _321  and  _324
REMARK  128  A    between atoms: _324  and  _325
REMARK  129  A    between atoms: _325  and  _326
REMARK  130  A    between atoms: _326  and  _327
REMARK  131  A    between atoms: _336  and  _338
REMARK  132  A    between atoms: _338  and  _339
REMARK  133  A    between atoms: _338  and  _341
REMARK  134  A    between atoms: _341  and  _342
REMARK  135  A    between atoms: _344  and  _346
REMARK  136  A    between atoms: _346  and  _347
REMARK  137  A    between atoms: _346  and  _349
REMARK  138  A    between atoms: _349  and  _350
REMARK  139  A    between atoms: _355  and  _356
REMARK  140  A    between atoms: _358  and  _360
REMARK  141  A    between atoms: _360  and  _361
REMARK  142  A    between atoms: _360  and  _363
REMARK  143  A    between atoms: _365  and  _367
REMARK  144  A    between atoms: _367  and  _368
REMARK  145  A    between atoms: _370  and  _372
REMARK  146  A    between atoms: _372  and  _373
REMARK  147  A    between atoms: _372  and  _375
REMARK  148  A    between atoms: _375  and  _376
REMARK  149  A    between atoms: _376  and  _377
REMARK  150  A    between atoms: _379  and  _381
REMARK  151  A    between atoms: _381  and  _382
REMARK  152  A    between atoms: _381  and  _384
REMARK  153  A    between atoms: _384  and  _385
REMARK  154  A    between atoms: _385  and  _386
REMARK  155  A    between atoms: _389  and  _391
REMARK  156  A    between atoms: _391  and  _392
REMARK  157  A    between atoms: _395  and  _397
REMARK  158  A    between atoms: _397  and  _398
REMARK  159  A    between atoms: _397  and  _400
REMARK  160  A    between atoms: _400  and  _401
REMARK  161  A    between atoms: _406  and  _408
REMARK  162  A    between atoms: _408  and  _409
REMARK  163  A    between atoms: _411  and  _413
REMARK  164  A    between atoms: _413  and  _414
REMARK  165  A    between atoms: _416  and  _418
REMARK  166  A    between atoms: _418  and  _419
REMARK  167  A    between atoms: _418  and  _421
REMARK  168  A    between atoms: _421  and  _422
REMARK  169  A    between atoms: _427  and  _428
REMARK  170  A    between atoms: _430  and  _432
REMARK  171  A    between atoms: _432  and  _433
REMARK  172  A    between atoms: _432  and  _435
REMARK  173  A    between atoms: _435  and  _436
REMARK  174  A    between atoms: _439  and  _441
REMARK  175  A    between atoms: _441  and  _442
REMARK  176  A    between atoms: _441  and  _444
REMARK  177  A    between atoms: _444  and  _445
REMARK  178  A    between atoms: _451  and  _453
REMARK  179  A    between atoms: _453  and  _454
REMARK  180  A    between atoms: _453  and  _456
REMARK  181  A    between atoms: _458  and  _460
REMARK  182  A    between atoms: _460  and  _461
REMARK  183  A    between atoms: _463  and  _465
REMARK  184  A    between atoms: _465  and  _466
REMARK  185  A    between atoms: _465  and  _468
REMARK  186  A    between atoms: _468  and  _469
REMARK  187  A    between atoms: _475  and  _477
REMARK  188  A    between atoms: _477  and  _478
REMARK  189  A    between atoms: _477  and  _480
REMARK  190  A    between atoms: _480  and  _481
REMARK  191  A    between atoms: _481  and  _482
REMARK  192  A    between atoms: _487  and  _489
REMARK  193  A    between atoms: _489  and  _490
REMARK  194  A    between atoms: _492  and  _494
REMARK  195  A    between atoms: _494  and  _495
REMARK  196  A    between atoms: _494  and  _497
REMARK  197  A    between atoms: _497  and  _498
REMARK  198  A    between atoms: _498  and  _499
REMARK  199  A    between atoms: _499  and  _500
REMARK  200  A    between atoms: _509  and  _511
REMARK  201  A    between atoms: _511  and  _512
REMARK  202  A    between atoms: _511  and  _514
REMARK  203  A    between atoms: _516  and  _518
REMARK  204  A    between atoms: _518  and  _519
REMARK  205  A    between atoms: _518  and  _521
REMARK  206  A    between atoms: _521  and  _522
REMARK  207  A    between atoms: _527  and  _529
REMARK  208  A    between atoms: _529  and  _530
REMARK  209  A    between atoms: _529  and  _532
REMARK  210  A    between atoms: _532  and  _533
REMARK  211  A    between atoms: _533  and  _534
REMARK  212  A    between atoms: _534  and  _535
REMARK  213  A    between atoms: _535  and  _536
REMARK  214  A    between atoms: _540  and  _542
REMARK  215  A    between atoms: _542  and  _543
REMARK  216  A    between atoms: _542  and  _545
REMARK  217  A    between atoms: _545  and  _546
REMARK  218  A    between atoms: _549  and  _551
REMARK  219  A    between atoms: _551  and  _552
REMARK  220  A    between atoms: _551  and  _554
REMARK  221  A    between atoms: _557  and  _559
REMARK  222  A    between atoms: _559  and  _560
REMARK  223  A    between atoms: _559  and  _562
REMARK  224  A    between atoms: _562  and  _563
REMARK  225  A    between atoms: _563  and  _565
REMARK  226  A    between atoms: _565  and  ZN_690
REMARK  227  A    between atoms: _566  and  _568
REMARK  228  A    between atoms: _568  and  _569
REMARK  229  A    between atoms: _568  and  _571
REMARK  230  A    between atoms: _571  and  _572
REMARK  231  A    between atoms: _572  and  ZN_690
REMARK  232  A    between atoms: _573  and  _575
REMARK  233  A    between atoms: _575  and  _576
REMARK  234  A    between atoms: _575  and  _578
REMARK  235  A    between atoms: _578  and  _579
REMARK  236  A    between atoms: _584  and  _585
REMARK  237  A    between atoms: _587  and  _589
REMARK  238  A    between atoms: _589  and  _590
REMARK  239  A    between atoms: _589  and  _592
REMARK  240  A    between atoms: _592  and  _593
REMARK  241  A    between atoms: _599  and  _601
REMARK  242  A    between atoms: _601  and  _602
REMARK  243  A    between atoms: _601  and  _604
REMARK  244  A    between atoms: _604  and  _605
REMARK  245  A    between atoms: _615  and  _617
REMARK  246  A    between atoms: _617  and  _618
REMARK  247  A    between atoms: _617  and  _620
REMARK  248  A    between atoms: _620  and  _621
REMARK  249  A    between atoms: _621  and  _622
REMARK  250  A    between atoms: _627  and  _629
REMARK  251  A    between atoms: _629  and  _630
REMARK  252  A    between atoms: _629  and  _632
REMARK  253  A    between atoms: _632  and  _633
REMARK  254  A    between atoms: _636  and  _638
REMARK  255  A    between atoms: _638  and  _639
REMARK  256  A    between atoms: _638  and  _641
REMARK  257  A    between atoms: _641  and  _642
REMARK  258  A    between atoms: _642  and  _643
REMARK  259  A    between atoms: _643  and  _644
REMARK  260  A    between atoms: _644  and  _645
REMARK  261  A    between atoms: _649  and  _651
REMARK  262  A    between atoms: _651  and  _652
REMARK  263  A    between atoms: _651  and  _654
REMARK  264  A    between atoms: _654  and  _655
REMARK  265  A    between atoms: _655  and  _656
REMARK  266  A    between atoms: _656  and  _657
REMARK  267  A    between atoms: _657  and  _658
REMARK  268  A    between atoms: _662  and  _664
REMARK  269  A    between atoms: _664  and  _665
REMARK  270  A    between atoms: _664  and  _667
REMARK  271  A    between atoms: _667  and  _668
REMARK  272  A    between atoms: _673  and  _674
REMARK  273  A    between atoms: _676  and  _678
REMARK  274  A    between atoms: _678  and  _679
REMARK  275  A    between atoms: _678  and  _681
REMARK  276  A    between atoms: _681  and  _682
REMARK  277  A    between atoms: _687  and  _688
REMARK                            x       y       z     vdW  Elec       q    Type
REMARK                         _______ _______ _______ _____ _____    ______ ____
ROOT
ATOM      1  CG  TRP A   1     179.726 127.627  31.491  0.00  0.00    -0.002 A 
ATOM      2  CD2 TRP A   1     179.967 126.263  31.879  0.00  0.00    +0.013 A 
ATOM      3  CE3 TRP A   1     179.790 125.542  33.067  0.00  0.00    +0.001 A 
ATOM      4  CZ3 TRP A   1     180.156 124.186  33.096  0.00  0.00    +0.000 A 
ATOM      5  CH2 TRP A   1     180.686 123.557  31.964  0.00  0.00    +0.001 A 
ATOM      6  CZ2 TRP A   1     180.866 124.241  30.788  0.00  0.00    +0.017 A 
ATOM      7  CE2 TRP A   1     180.504 125.601  30.757  0.00  0.00    +0.056 A 
ATOM      8  NE1 TRP A   1     180.584 126.519  29.739  0.00  0.00    -0.352 N 
ATOM      9  HE1 TRP A   1     180.945 126.328  28.783  0.00  0.00    +0.166 HD
ATOM     10  CD1 TRP A   1     180.112 127.729  30.183  0.00  0.00    +0.068 A 
ENDROOT
BRANCH   1  11
ATOM     11  CB  TRP A   1     179.207 128.714  32.342  0.00  0.00    +0.053 C 
BRANCH  11  12
ATOM     12  CA  TRP A   1     177.775 128.524  32.803  0.00  0.00    +0.137 C 
BRANCH  12  13
ATOM     13  N   TRP A   1     176.826 129.040  31.821  0.00  0.00    -0.239 NA
ATOM     14  H   TRP A   1     177.179 129.598  31.018  0.00  0.00    +0.142 HD
ENDBRANCH  12  13
BRANCH  12  15
ATOM     15  C   TRP A   1     177.619 129.259  34.100  0.00  0.00    +0.224 C 
ATOM     16  O   TRP A   1     177.717 128.668  35.170  0.00  0.00    -0.287 OA
ENDBRANCH  12  15
ENDBRANCH  11  12
ENDBRANCH   1  11
TORSDOF 4
REMARK  Name = ../refined-set-2016/1o1s/1o1s_pocket.pdb
REMARK  277 active torsions:
REMARK  status: ('A' for Active; 'I' for Inactive)
REMARK    1  A    between atoms: _1  and  _3
REMARK    2  A    between atoms: _3  and  _4
REMARK    3  A    between atoms: _7  and  _9
REMARK    4  A    between atoms: _9  and  _10
REMARK    5  A    between atoms: _9  and  _12
REMARK    6  A    between atoms: _12  and  _13
REMARK    7  A    between atoms: _18  and  _19
REMARK    8  A    between atoms: _21  and  _23
REMARK    9  A    between atoms: _23  and  _24
REMARK   10  A    between atoms: _23  and  _26
REMARK   11  A    between atoms: _26  and  _27
REMARK   12  A    between atoms: _27  and  _28
REMARK   13  A    between atoms: _28  and  _29
REMARK   14  A    between atoms: _29  and  _30
REMARK   15  A    between atoms: _34  and  _36
REMARK   16  A    between atoms: _36  and  _37
REMARK   17  A    between atoms: _36  and  _39
REMARK   18  A    between atoms: _39  and  _40
REMARK   19  A    between atoms: _45  and  _47
REMARK   20  A    between atoms: _47  and  _48
REMARK   21  A    between atoms: _47  and  _50
REMARK   22  A    between atoms: _50  and  _51
REMARK   23  A    between atoms: _56  and  _57
REMARK   24  A    between atoms: _59  and  _61
REMARK   25  A    between atoms: _61  and  _62
REMARK   26  A    between atoms: _61  and  _64
REMARK   27  A    between atoms: _64  and  _65
REMARK   28  A    between atoms: _65  and  _66
REMARK   29  A    between atoms: _71  and  _73
REMARK   30  A    between atoms: _73  and  _74
REMARK   31  A    between atoms: _73  and  _76
REMARK   32  A    between atoms: _76  and  _77
REMARK   33  A    between atoms: _80  and  _82
REMARK   34  A    between atoms: _82  and  _83
REMARK   35  A    between atoms: _82  and  _85
REMARK   36  A    between atoms: _85  and  _86
REMARK   37  A    between atoms: _86  and  _87
REMARK   38  A    between atoms: _87  and  _88
REMARK   39  A    between atoms: _88  and  _89
REMARK   40  A    between atoms: _93  and  _95
REMARK   41  A    between atoms: _95  and  _96
REMARK   42  A    between atoms: _95  and  _98
REMARK   43  A    between atoms: _98  and  _99
REMARK   44  A    between atoms: _104  and  _106
REMARK   45  A    between atoms: _106  and  _107
REMARK   46  A    between atoms: _106  and  _109
REMARK   47  A    between atoms: _109  and  _110
REMARK   48  A    between atoms: _115  and  _116
REMARK   49  A    between atoms: _118  and  _120
REMARK   50  A    between atoms: _120  and  _121
REMARK   51  A    between atoms: _120  and  _123
REMARK   52  A    between atoms: _123  and  _124
REMARK   53  A    between atoms: _129  and  _131
REMARK   54  A    between atoms: _131  and  _132
REMARK   55  A    between atoms: _135  and  _137
REMARK   56  A    between atoms: _137  and  _138
REMARK   57  A    between atoms: _137  and  _140
REMARK   58  A    between atoms: _140  and  _141
REMARK   59  A    between atoms: _141  and  _142
REMARK   60  A    between atoms: _147  and  _149
REMARK   61  A    between atoms: _149  and  _150
REMARK   62  A    between atoms: _149  and  _152
REMARK   63  A    between atoms: _152  and  _153
REMARK   64  A    between atoms: _155  and  _157
REMARK   65  A    between atoms: _157  and  _158
REMARK   66  A    between atoms: _157  and  _160
REMARK   67  A    between atoms: _160  and  _161
REMARK   68  A    between atoms: _164  and  _166
REMARK   69  A    between atoms: _166  and  _167
REMARK   70  A    between atoms: _170  and  _172
REMARK   71  A    between atoms: _172  and  _173
REMARK   72  A    between atoms: _172  and  _175
REMARK   73  A    between atoms: _175  and  _176
REMARK   74  A    between atoms: _178  and  _180
REMARK   75  A    between atoms: _180  and  _181
REMARK   76  A    between atoms: _180  and  _183
REMARK   77  A    between atoms: _183  and  _184
REMARK   78  A    between atoms: _194  and  _196
REMARK   79  A    between atoms: _196  and  _197
REMARK   80  A    between atoms: _196  and  _199
REMARK   81  A    between atoms: _199  and  _200
REMARK   82  A    between atoms: _210  and  _212
REMARK   83  A    between atoms: _212  and  _213
REMARK   84  A    between atoms: _212  and  _215
REMARK   85  A    between atoms: _215  and  _216
REMARK   86  A    between atoms: _221  and  _223
REMARK   87  A    between atoms: _223  and  _224
REMARK   88  A    between atoms: _223  and  _226
REMARK   89  A    between atoms: _226  and  _227
REMARK   90  A    between atoms: _230  and  _232
REMARK   91  A    between atoms: _232  and  _233
REMARK   92  A    between atoms: _237  and  _238
REMARK   93  A    between atoms: _243  and  _245
REMARK   94  A    between atoms: _245  and  _246
REMARK   95  A    between atoms: _245  and  _248
REMARK   96  A    between atoms: _248  and  _249
REMARK   97  A    between atoms: _252  and  _254
REMARK   98  A    between atoms: _254  and  _255
REMARK   99  A    between atoms: _254  and  _257
REMARK  100  A    between atoms: _257  and  _258
REMARK  101  A    between atoms: _263  and  _264
REMARK  102  A    between atoms: _266  and  _268
REMARK  103  A    between atoms: _268  and  _269
REMARK  104  A    between atoms: _272  and  _274
REMARK  105  A    between atoms: _274  and  _275
REMARK  106  A    between atoms: _274  and  _277
REMARK  107  A    between atoms: _277  and  _278
REMARK  108  A    between atoms: _278  and  _279
REMARK  109  A    between atoms: _281  and  _283
REMARK  110  A    between atoms: _283  and  _284
REMARK  111  A    between atoms: _283  and  _286
REMARK  112  A    between atoms: _286  and  _287
REMARK  113  A    between atoms: _292  and  _294
REMARK  114  A    between atoms: _294  and  _295
REMARK  115  A    between atoms: _294  and  _297
REMARK  116  A    between atoms: _297  and  _298
REMARK  117  A    between atoms: _298  and  _299
REMARK  118  A    between atoms: _302  and  _304
REMARK  119  A    between atoms: _304  and  _305
REMARK  120  A    between atoms: _304  and  _307
REMARK  121  A    between atoms: _307  and  _308
REMARK  122  A    between atoms: _311  and  _313
REMARK  123  A    between atoms: _313  and  _314
REMARK  124  A    between atoms: _313  and  _316
REMARK  125  A    between atoms: _319  and  _321
REMARK  126  A    between atoms: _321  and  _322
REMARK  127  A    between atoms: _321  and  _324
REMARK  128  A    between atoms: _324  and  _325
REMARK  129  A    between atoms: _325  and  _326
REMARK  130  A    between atoms: _326  and  _327
REMARK  131  A    between atoms: _336  and  _338
REMARK  132  A    between atoms: _338  and  _339
REMARK  133  A    between atoms: _338  and  _341
REMARK  134  A    between atoms: _341  and  _342
REMARK  135  A    between atoms: _344  and  _346
REMARK  136  A    between atoms: _346  and  _347
REMARK  137  A    between atoms: _346  and  _349
REMARK  138  A    between atoms: _349  and  _350
REMARK  139  A    between atoms: _355  and  _356
REMARK  140  A    between atoms: _358  and  _360
REMARK  141  A    between atoms: _360  and  _361
REMARK  142  A    between atoms: _360  and  _363
REMARK  143  A    between atoms: _365  and  _367
REMARK  144  A    between atoms: _367  and  _368
REMARK  145  A    between atoms: _370  and  _372
REMARK  146  A    between atoms: _372  and  _373
REMARK  147  A    between atoms: _372  and  _375
REMARK  148  A    between atoms: _375  and  _376
REMARK  149  A    between atoms: _376  and  _377
REMARK  150  A    between atoms: _379  and  _381
REMARK  151  A    between atoms: _381  and  _382
REMARK  152  A    between atoms: _381  and  _384
REMARK  153  A    between atoms: _384  and  _385
REMARK  154  A    between atoms: _385  and  _386
REMARK  155  A    between atoms: _389  and  _391
REMARK  156  A    between atoms: _391  and  _392
REMARK  157  A    between atoms: _395  and  _397
REMARK  158  A    between atoms: _397  and  _398
REMARK  159  A    between atoms: _397  and  _400
REMARK  160  A    between atoms: _400  and  _401
REMARK  161  A    between atoms: _406  and  _408
REMARK  162  A    between atoms: _408  and  _409
REMARK  163  A    between atoms: _411  and  _413
REMARK  164  A    between atoms: _413  and  _414
REMARK  165  A    between atoms: _416  and  _418
REMARK  166  A    between atoms: _418  and  _419
REMARK  167  A    between atoms: _418  and  _421
REMARK  168  A    between atoms: _421  and  _422
REMARK  169  A    between atoms: _427  and  _428
REMARK  170  A    between atoms: _430  and  _432
REMARK  171  A    between atoms: _432  and  _433
REMARK  172  A    between atoms: _432  and  _435
REMARK  173  A    between atoms: _435  and  _436
REMARK  174  A    between atoms: _439  and  _441
REMARK  175  A    between atoms: _441  and  _442
REMARK  176  A    between atoms: _441  and  _444
REMARK  177  A    between atoms: _444  and  _445
REMARK  178  A    between atoms: _451  and  _453
REMARK  179  A    between atoms: _453  and  _454
REMARK  180  A    between atoms: _453  and  _456
REMARK  181  A    between atoms: _458  and  _460
REMARK  182  A    between atoms: _460  and  _461
REMARK  183  A    between atoms: _463  and  _465
REMARK  184  A    between atoms: _465  and  _466
REMARK  185  A    between atoms: _465  and  _468
REMARK  186  A    between atoms: _468  and  _469
REMARK  187  A    between atoms: _475  and  _477
REMARK  188  A    between atoms: _477  and  _478
REMARK  189  A    between atoms: _477  and  _480
REMARK  190  A    between atoms: _480  and  _481
REMARK  191  A    between atoms: _481  and  _482
REMARK  192  A    between atoms: _487  and  _489
REMARK  193  A    between atoms: _489  and  _490
REMARK  194  A    between atoms: _492  and  _494
REMARK  195  A    between atoms: _494  and  _495
REMARK  196  A    between atoms: _494  and  _497
REMARK  197  A    between atoms: _497  and  _498
REMARK  198  A    between atoms: _498  and  _499
REMARK  199  A    between atoms: _499  and  _500
REMARK  200  A    between atoms: _509  and  _511
REMARK  201  A    between atoms: _511  and  _512
REMARK  202  A    between atoms: _511  and  _514
REMARK  203  A    between atoms: _516  and  _518
REMARK  204  A    between atoms: _518  and  _519
REMARK  205  A    between atoms: _518  and  _521
REMARK  206  A    between atoms: _521  and  _522
REMARK  207  A    between atoms: _527  and  _529
REMARK  208  A    between atoms: _529  and  _530
REMARK  209  A    between atoms: _529  and  _532
REMARK  210  A    between atoms: _532  and  _533
REMARK  211  A    between atoms: _533  and  _534
REMARK  212  A    between atoms: _534  and  _535
REMARK  213  A    between atoms: _535  and  _536
REMARK  214  A    between atoms: _540  and  _542
REMARK  215  A    between atoms: _542  and  _543
REMARK  216  A    between atoms: _542  and  _545
REMARK  217  A    between atoms: _545  and  _546
REMARK  218  A    between atoms: _549  and  _551
REMARK  219  A    between atoms: _551  and  _552
REMARK  220  A    between atoms: _551  and  _554
REMARK  221  A    between atoms: _557  and  _559
REMARK  222  A    between atoms: _559  and  _560
REMARK  223  A    between atoms: _559  and  _562
REMARK  224  A    between atoms: _562  and  _563
REMARK  225  A    between atoms: _563  and  _565
REMARK  226  A    between atoms: _565  and  ZN_690
REMARK  227  A    between atoms: _566  and  _568
REMARK  228  A    between atoms: _568  and  _569
REMARK  229  A    between atoms: _568  and  _571
REMARK  230  A    between atoms: _571  and  _572
REMARK  231  A    between atoms: _572  and  ZN_690
REMARK  232  A    between atoms: _573  and  _575
REMARK  233  A    between atoms: _575  and  _576
REMARK  234  A    between atoms: _575  and  _578
REMARK  235  A    between atoms: _578  and  _579
REMARK  236  A    between atoms: _584  and  _585
REMARK  237  A    between atoms: _587  and  _589
REMARK  238  A    between atoms: _589  and  _590
REMARK  239  A    between atoms: _589  and  _592
REMARK  240  A    between atoms: _592  and  _593
REMARK  241  A    between atoms: _599  and  _601
REMARK  242  A    between atoms: _601  and  _602
REMARK  243  A    between atoms: _601  and  _604
REMARK  244  A    between atoms: _604  and  _605
REMARK  245  A    between atoms: _615  and  _617
REMARK  246  A    between atoms: _617  and  _618
REMARK  247  A    between atoms: _617  and  _620
REMARK  248  A    between atoms: _620  and  _621
REMARK  249  A    between atoms: _621  and  _622
REMARK  250  A    between atoms: _627  and  _629
REMARK  251  A    between atoms: _629  and  _630
REMARK  252  A    between atoms: _629  and  _632
REMARK  253  A    between atoms: _632  and  _633
REMARK  254  A    between atoms: _636  and  _638
REMARK  255  A    between atoms: _638  and  _639
REMARK  256  A    between atoms: _638  and  _641
REMARK  257  A    between atoms: _641  and  _642
REMARK  258  A    between atoms: _642  and  _643
REMARK  259  A    between atoms: _643  and  _644
REMARK  260  A    between atoms: _644  and  _645
REMARK  261  A    between atoms: _649  and  _651
REMARK  262  A    between atoms: _651  and  _652
REMARK  263  A    between atoms: _651  and  _654
REMARK  264  A    between atoms: _654  and  _655
REMARK  265  A    between atoms: _655  and  _656
REMARK  266  A    between atoms: _656  and  _657
REMARK  267  A    between atoms: _657  and  _658
REMARK  268  A    between atoms: _662  and  _664
REMARK  269  A    between atoms: _664  and  _665
REMARK  270  A    between atoms: _664  and  _667
REMARK  271  A    between atoms: _667  and  _668
REMARK  272  A    between atoms: _673  and  _674
REMARK  273  A    between atoms: _676  and  _678
REMARK  274  A    between atoms: _678  and  _679
REMARK  275  A    between atoms: _678  and  _681
REMARK  276  A    between atoms: _681  and  _682
REMARK  277  A    between atoms: _687  and  _688
REMARK                            x       y       z     vdW  Elec       q    Type
REMARK                         _______ _______ _______ _____ _____    ______ ____
ROOT
ATOM      1  CG  TRP A   1     179.947 128.011  37.242  0.00  0.00    -0.002 A 
ATOM      2  CD1 TRP A   1     180.272 126.712  36.915  0.00  0.00    +0.068 A 
ATOM      3  NE1 TRP A   1     181.129 126.701  35.846  0.00  0.00    -0.352 N 
ATOM      4  CE2 TRP A   1     181.379 127.993  35.455  0.00  0.00    +0.056 A 
ATOM      5  CZ2 TRP A   1     182.184 128.488  34.422  0.00  0.00    +0.017 A 
ATOM      6  CH2 TRP A   1     182.259 129.852  34.269  0.00  0.00    +0.001 A 
ATOM      7  CZ3 TRP A   1     181.556 130.725  35.115  0.00  0.00    +0.000 A 
ATOM      8  CE3 TRP A   1     180.755 130.237  36.138  0.00  0.00    +0.001 A 
ATOM      9  HE1 TRP A   1     181.527 125.849  35.401  0.00  0.00    +0.166 HD
ATOM     10  CD2 TRP A   1     180.659 128.845  36.319  0.00  0.00    +0.013 A 
ENDROOT
BRANCH   1  11
ATOM     11  CB  TRP A   1     179.023 128.488  38.335  0.00  0.00    +0.053 C 
BRANCH  11  12
ATOM     12  CA  TRP A   1     177.850 127.574  38.703  0.00  0.00    +0.137 C 
BRANCH  12  13
ATOM     13  N   TRP A   1     176.930 127.415  37.577  0.00  0.00    -0.239 NA
ATOM     14  H   TRP A   1     177.149 127.882  36.674  0.00  0.00    +0.142 HD
ENDBRANCH  12  13
BRANCH  12  15
ATOM     15  C   TRP A   1     177.152 128.179  39.926  0.00  0.00    +0.224 C 
ATOM     16  O   TRP A   1     177.341 127.730  41.046  0.00  0.00    -0.287 OA
ENDBRANCH  12  15
ENDBRANCH  11  12
ENDBRANCH   1  11
TORSDOF 4
REMARK  Name = ../refined-set-2016/1o1s/1o1s_pocket.pdb
REMARK  277 active torsions:
REMARK  status: ('A' for Active; 'I' for Inactive)
REMARK    1  A    between atoms: _1  and  _3
REMARK    2  A    between atoms: _3  and  _4
REMARK    3  A    between atoms: _7  and  _9
REMARK    4  A    between atoms: _9  and  _10
REMARK    5  A    between atoms: _9  and  _12
REMARK    6  A    between atoms: _12  and  _13
REMARK    7  A    between atoms: _18  and  _19
REMARK    8  A    between atoms: _21  and  _23
REMARK    9  A    between atoms: _23  and  _24
REMARK   10  A    between atoms: _23  and  _26
REMARK   11  A    between atoms: _26  and  _27
REMARK   12  A    between atoms: _27  and  _28
REMARK   13  A    between atoms: _28  and  _29
REMARK   14  A    between atoms: _29  and  _30
REMARK   15  A    between atoms: _34  and  _36
REMARK   16  A    between atoms: _36  and  _37
REMARK   17  A    between atoms: _36  and  _39
REMARK   18  A    between atoms: _39  and  _40
REMARK   19  A    between atoms: _45  and  _47
REMARK   20  A    between atoms: _47  and  _48
REMARK   21  A    between atoms: _47  and  _50
REMARK   22  A    between atoms: _50  and  _51
REMARK   23  A    between atoms: _56  and  _57
REMARK   24  A    between atoms: _59  and  _61
REMARK   25  A    between atoms: _61  and  _62
REMARK   26  A    between atoms: _61  and  _64
REMARK   27  A    between atoms: _64  and  _65
REMARK   28  A    between atoms: _65  and  _66
REMARK   29  A    between atoms: _71  and  _73
REMARK   30  A    between atoms: _73  and  _74
REMARK   31  A    between atoms: _73  and  _76
REMARK   32  A    between atoms: _76  and  _77
REMARK   33  A    between atoms: _80  and  _82
REMARK   34  A    between atoms: _82  and  _83
REMARK   35  A    between atoms: _82  and  _85
REMARK   36  A    between atoms: _85  and  _86
REMARK   37  A    between atoms: _86  and  _87
REMARK   38  A    between atoms: _87  and  _88
REMARK   39  A    between atoms: _88  and  _89
REMARK   40  A    between atoms: _93  and  _95
REMARK   41  A    between atoms: _95  and  _96
REMARK   42  A    between atoms: _95  and  _98
REMARK   43  A    between atoms: _98  and  _99
REMARK   44  A    between atoms: _104  and  _106
REMARK   45  A    between atoms: _106  and  _107
REMARK   46  A    between atoms: _106  and  _109
REMARK   47  A    between atoms: _109  and  _110
REMARK   48  A    between atoms: _115  and  _116
REMARK   49  A    between atoms: _118  and  _120
REMARK   50  A    between atoms: _120  and  _121
REMARK   51  A    between atoms: _120  and  _123
REMARK   52  A    between atoms: _123  and  _124
REMARK   53  A    between atoms: _129  and  _131
REMARK   54  A    between atoms: _131  and  _132
REMARK   55  A    between atoms: _135  and  _137
REMARK   56  A    between atoms: _137  and  _138
REMARK   57  A    between atoms: _137  and  _140
REMARK   58  A    between atoms: _140  and  _141
REMARK   59  A    between atoms: _141  and  _142
REMARK   60  A    between atoms: _147  and  _149
REMARK   61  A    between atoms: _149  and  _150
REMARK   62  A    between atoms: _149  and  _152
REMARK   63  A    between atoms: _152  and  _153
REMARK   64  A    between atoms: _155  and  _157
REMARK   65  A    between atoms: _157  and  _158
REMARK   66  A    between atoms: _157  and  _160
REMARK   67  A    between atoms: _160  and  _161
REMARK   68  A    between atoms: _164  and  _166
REMARK   69  A    between atoms: _166  and  _167
REMARK   70  A    between atoms: _170  and  _172
REMARK   71  A    between atoms: _172  and  _173
REMARK   72  A    between atoms: _172  and  _175
REMARK   73  A    between atoms: _175  and  _176
REMARK   74  A    between atoms: _178  and  _180
REMARK   75  A    between atoms: _180  and  _181
REMARK   76  A    between atoms: _180  and  _183
REMARK   77  A    between atoms: _183  and  _184
REMARK   78  A    between atoms: _194  and  _196
REMARK   79  A    between atoms: _196  and  _197
REMARK   80  A    between atoms: _196  and  _199
REMARK   81  A    between atoms: _199  and  _200
REMARK   82  A    between atoms: _210  and  _212
REMARK   83  A    between atoms: _212  and  _213
REMARK   84  A    between atoms: _212  and  _215
REMARK   85  A    between atoms: _215  and  _216
REMARK   86  A    between atoms: _221  and  _223
REMARK   87  A    between atoms: _223  and  _224
REMARK   88  A    between atoms: _223  and  _226
REMARK   89  A    between atoms: _226  and  _227
REMARK   90  A    between atoms: _230  and  _232
REMARK   91  A    between atoms: _232  and  _233
REMARK   92  A    between atoms: _237  and  _238
REMARK   93  A    between atoms: _243  and  _245
REMARK   94  A    between atoms: _245  and  _246
REMARK   95  A    between atoms: _245  and  _248
REMARK   96  A    between atoms: _248  and  _249
REMARK   97  A    between atoms: _252  and  _254
REMARK   98  A    between atoms: _254  and  _255
REMARK   99  A    between atoms: _254  and  _257
REMARK  100  A    between atoms: _257  and  _258
REMARK  101  A    between atoms: _263  and  _264
REMARK  102  A    between atoms: _266  and  _268
REMARK  103  A    between atoms: _268  and  _269
REMARK  104  A    between atoms: _272  and  _274
REMARK  105  A    between atoms: _274  and  _275
REMARK  106  A    between atoms: _274  and  _277
REMARK  107  A    between atoms: _277  and  _278
REMARK  108  A    between atoms: _278  and  _279
REMARK  109  A    between atoms: _281  and  _283
REMARK  110  A    between atoms: _283  and  _284
REMARK  111  A    between atoms: _283  and  _286
REMARK  112  A    between atoms: _286  and  _287
REMARK  113  A    between atoms: _292  and  _294
REMARK  114  A    between atoms: _294  and  _295
REMARK  115  A    between atoms: _294  and  _297
REMARK  116  A    between atoms: _297  and  _298
REMARK  117  A    between atoms: _298  and  _299
REMARK  118  A    between atoms: _302  and  _304
REMARK  119  A    between atoms: _304  and  _305
REMARK  120  A    between atoms: _304  and  _307
REMARK  121  A    between atoms: _307  and  _308
REMARK  122  A    between atoms: _311  and  _313
REMARK  123  A    between atoms: _313  and  _314
REMARK  124  A    between atoms: _313  and  _316
REMARK  125  A    between atoms: _319  and  _321
REMARK  126  A    between atoms: _321  and  _322
REMARK  127  A    between atoms: _321  and  _324
REMARK  128  A    between atoms: _324  and  _325
REMARK  129  A    between atoms: _325  and  _326
REMARK  130  A    between atoms: _326  and  _327
REMARK  131  A    between atoms: _336  and  _338
REMARK  132  A    between atoms: _338  and  _339
REMARK  133  A    between atoms: _338  and  _341
REMARK  134  A    between atoms: _341  and  _342
REMARK  135  A    between atoms: _344  and  _346
REMARK  136  A    between atoms: _346  and  _347
REMARK  137  A    between atoms: _346  and  _349
REMARK  138  A    between atoms: _349  and  _350
REMARK  139  A    between atoms: _355  and  _356
REMARK  140  A    between atoms: _358  and  _360
REMARK  141  A    between atoms: _360  and  _361
REMARK  142  A    between atoms: _360  and  _363
REMARK  143  A    between atoms: _365  and  _367
REMARK  144  A    between atoms: _367  and  _368
REMARK  145  A    between atoms: _370  and  _372
REMARK  146  A    between atoms: _372  and  _373
REMARK  147  A    between atoms: _372  and  _375
REMARK  148  A    between atoms: _375  and  _376
REMARK  149  A    between atoms: _376  and  _377
REMARK  150  A    between atoms: _379  and  _381
REMARK  151  A    between atoms: _381  and  _382
REMARK  152  A    between atoms: _381  and  _384
REMARK  153  A    between atoms: _384  and  _385
REMARK  154  A    between atoms: _385  and  _386
REMARK  155  A    between atoms: _389  and  _391
REMARK  156  A    between atoms: _391  and  _392
REMARK  157  A    between atoms: _395  and  _397
REMARK  158  A    between atoms: _397  and  _398
REMARK  159  A    between atoms: _397  and  _400
REMARK  160  A    between atoms: _400  and  _401
REMARK  161  A    between atoms: _406  and  _408
REMARK  162  A    between atoms: _408  and  _409
REMARK  163  A    between atoms: _411  and  _413
REMARK  164  A    between atoms: _413  and  _414
REMARK  165  A    between atoms: _416  and  _418
REMARK  166  A    between atoms: _418  and  _419
REMARK  167  A    between atoms: _418  and  _421
REMARK  168  A    between atoms: _421  and  _422
REMARK  169  A    between atoms: _427  and  _428
REMARK  170  A    between atoms: _430  and  _432
REMARK  171  A    between atoms: _432  and  _433
REMARK  172  A    between atoms: _432  and  _435
REMARK  173  A    between atoms: _435  and  _436
REMARK  174  A    between atoms: _439  and  _441
REMARK  175  A    between atoms: _441  and  _442
REMARK  176  A    between atoms: _441  and  _444
REMARK  177  A    between atoms: _444  and  _445
REMARK  178  A    between atoms: _451  and  _453
REMARK  179  A    between atoms: _453  and  _454
REMARK  180  A    between atoms: _453  and  _456
REMARK  181  A    between atoms: _458  and  _460
REMARK  182  A    between atoms: _460  and  _461
REMARK  183  A    between atoms: _463  and  _465
REMARK  184  A    between atoms: _465  and  _466
REMARK  185  A    between atoms: _465  and  _468
REMARK  186  A    between atoms: _468  and  _469
REMARK  187  A    between atoms: _475  and  _477
REMARK  188  A    between atoms: _477  and  _478
REMARK  189  A    between atoms: _477  and  _480
REMARK  190  A    between atoms: _480  and  _481
REMARK  191  A    between atoms: _481  and  _482
REMARK  192  A    between atoms: _487  and  _489
REMARK  193  A    between atoms: _489  and  _490
REMARK  194  A    between atoms: _492  and  _494
REMARK  195  A    between atoms: _494  and  _495
REMARK  196  A    between atoms: _494  and  _497
REMARK  197  A    between atoms: _497  and  _498
REMARK  198  A    between atoms: _498  and  _499
REMARK  199  A    between atoms: _499  and  _500
REMARK  200  A    between atoms: _509  and  _511
REMARK  201  A    between atoms: _511  and  _512
REMARK  202  A    between atoms: _511  and  _514
REMARK  203  A    between atoms: _516  and  _518
REMARK  204  A    between atoms: _518  and  _519
REMARK  205  A    between atoms: _518  and  _521
REMARK  206  A    between atoms: _521  and  _522
REMARK  207  A    between atoms: _527  and  _529
REMARK  208  A    between atoms: _529  and  _530
REMARK  209  A    between atoms: _529  and  _532
REMARK  210  A    between atoms: _532  and  _533
REMARK  211  A    between atoms: _533  and  _534
REMARK  212  A    between atoms: _534  and  _535
REMARK  213  A    between atoms: _535  and  _536
REMARK  214  A    between atoms: _540  and  _542
REMARK  215  A    between atoms: _542  and  _543
REMARK  216  A    between atoms: _542  and  _545
REMARK  217  A    between atoms: _545  and  _546
REMARK  218  A    between atoms: _549  and  _551
REMARK  219  A    between atoms: _551  and  _552
REMARK  220  A    between atoms: _551  and  _554
REMARK  221  A    between atoms: _557  and  _559
REMARK  222  A    between atoms: _559  and  _560
REMARK  223  A    between atoms: _559  and  _562
REMARK  224  A    between atoms: _562  and  _563
REMARK  225  A    between atoms: _563  and  _565
REMARK  226  A    between atoms: _565  and  ZN_690
REMARK  227  A    between atoms: _566  and  _568
REMARK  228  A    between atoms: _568  and  _569
REMARK  229  A    between atoms: _568  and  _571
REMARK  230  A    between atoms: _571  and  _572
REMARK  231  A    between atoms: _572  and  ZN_690
REMARK  232  A    between atoms: _573  and  _575
REMARK  233  A    between atoms: _575  and  _576
REMARK  234  A    between atoms: _575  and  _578
REMARK  235  A    between atoms: _578  and  _579
REMARK  236  A    between atoms: _584  and  _585
REMARK  237  A    between atoms: _587  and  _589
REMARK  238  A    between atoms: _589  and  _590
REMARK  239  A    between atoms: _589  and  _592
REMARK  240  A    between atoms: _592  and  _593
REMARK  241  A    between atoms: _599  and  _601
REMARK  242  A    between atoms: _601  and  _602
REMARK  243  A    between atoms: _601  and  _604
REMARK  244  A    between atoms: _604  and  _605
REMARK  245  A    between atoms: _615  and  _617
REMARK  246  A    between atoms: _617  and  _618
REMARK  247  A    between atoms: _617  and  _620
REMARK  248  A    between atoms: _620  and  _621
REMARK  249  A    between atoms: _621  and  _622
REMARK  250  A    between atoms: _627  and  _629
REMARK  251  A    between atoms: _629  and  _630
REMARK  252  A    between atoms: _629  and  _632
REMARK  253  A    between atoms: _632  and  _633
REMARK  254  A    between atoms: _636  and  _638
REMARK  255  A    between atoms: _638  and  _639
REMARK  256  A    between atoms: _638  and  _641
REMARK  257  A    between atoms: _641  and  _642
REMARK  258  A    between atoms: _642  and  _643
REMARK  259  A    between atoms: _643  and  _644
REMARK  260  A    between atoms: _644  and  _645
REMARK  261  A    between atoms: _649  and  _651
REMARK  262  A    between atoms: _651  and  _652
REMARK  263  A    between atoms: _651  and  _654
REMARK  264  A    between atoms: _654  and  _655
REMARK  265  A    between atoms: _655  and  _656
REMARK  266  A    between atoms: _656  and  _657
REMARK  267  A    between atoms: _657  and  _658
REMARK  268  A    between atoms: _662  and  _664
REMARK  269  A    between atoms: _664  and  _665
REMARK  270  A    between atoms: _664  and  _667
REMARK  271  A    between atoms: _667  and  _668
REMARK  272  A    between atoms: _673  and  _674
REMARK  273  A    between atoms: _676  and  _678
REMARK  274  A    between atoms: _678  and  _679
REMARK  275  A    between atoms: _678  and  _681
REMARK  276  A    between atoms: _681  and  _682
REMARK  277  A    between atoms: _687  and  _688
REMARK                            x       y       z     vdW  Elec       q    Type
REMARK                         _______ _______ _______ _____ _____    ______ ____
ROOT
ATOM      1  C   ALA A   3     178.579 124.232  27.390  0.00  0.00    +0.244 C 
ATOM      2  O   ALA A   3     178.067 123.797  28.414  0.00  0.00    -0.273 OA
ATOM      3  N   PRO A   4     178.116 125.341  26.775  0.00  0.00    -0.272 N 
ATOM      4  CA  PRO A   4     176.945 125.991  27.373  0.00  0.00    +0.152 C 
ATOM      5  CB  PRO A   4     176.787 127.279  26.549  0.00  0.00    +0.031 C 
ATOM      6  CG  PRO A   4     177.511 127.014  25.282  0.00  0.00    +0.024 C 
ATOM      7  CD  PRO A   4     178.702 126.197  25.726  0.00  0.00    +0.094 C 
ENDROOT
BRANCH   4   8
ATOM      8  C   PRO A   4     175.699 125.095  27.326  0.00  0.00    +0.241 C 
ATOM      9  O   PRO A   4     174.792 125.263  28.145  0.00  0.00    -0.273 OA
ATOM     10  N   THR A   5     175.650 124.153  26.376  0.00  0.00    -0.295 N 
ATOM     11  H   THR A   5     176.426 124.087  25.687  0.00  0.00    +0.150 HD
BRANCH  10  12
ATOM     12  CA  THR A   5     174.533 123.215  26.282  0.00  0.00    +0.176 C 
BRANCH  12  13
ATOM     13  C   THR A   5     174.532 122.346  27.539  0.00  0.00    +0.243 C 
ATOM     14  O   THR A   5     173.490 122.133  28.149  0.00  0.00    -0.273 OA
ATOM     15  N   TYR A   6     175.708 121.862  27.935  0.00  0.00    -0.297 N 
ATOM     16  H   TYR A   6     176.556 122.081  27.375  0.00  0.00    +0.150 HD
BRANCH  15  17
ATOM     17  CA  TYR A   6     175.845 121.035  29.129  0.00  0.00    +0.153 C 
BRANCH  17  18
ATOM     18  C   TYR A   6     175.424 121.841  30.360  0.00  0.00    +0.241 C 
ATOM     19  O   TYR A   6     174.684 121.366  31.211  0.00  0.00    -0.273 OA
ATOM     20  N   ALA A   7     175.925 123.069  30.436  0.00  0.00    -0.298 N 
ATOM     21  H   ALA A   7     176.554 123.387  29.671  0.00  0.00    +0.150 HD
BRANCH  20  22
ATOM     22  CA  ALA A   7     175.649 123.995  31.521  0.00  0.00    +0.137 C 
ATOM     23  CB  ALA A   7     176.468 125.257  31.304  0.00  0.00    +0.030 C 
BRANCH  22  24
ATOM     24  C   ALA A   7     174.148 124.340  31.616  0.00  0.00    +0.227 C 
ATOM     25  O   ALA A   7     173.544 124.294  32.693  0.00  0.00    -0.286 OA
ENDBRANCH  22  24
ENDBRANCH  20  22
ENDBRANCH  17  18
BRANCH  17  26
ATOM     26  CB  TYR A   6     177.297 120.563  29.261  0.00  0.00    +0.055 C 
BRANCH  26  27
ATOM     27  CG  TYR A   6     177.698 120.112  30.655  0.00  0.00    -0.020 A 
ATOM     28  CD2 TYR A   6     178.251 121.004  31.572  0.00  0.00    -0.001 A 
ATOM     29  CE2 TYR A   6     178.607 120.591  32.872  0.00  0.00    +0.036 A 
ATOM     30  CZ  TYR A   6     178.411 119.287  33.249  0.00  0.00    +0.134 A 
ATOM     31  CE1 TYR A   6     177.863 118.388  32.356  0.00  0.00    +0.036 A 
ATOM     32  CD1 TYR A   6     177.512 118.802  31.065  0.00  0.00    -0.001 A 
BRANCH  30  33
ATOM     33  OH  TYR A   6     178.784 118.859  34.506  0.00  0.00    -0.506 OA
ATOM     34  HH  TYR A   6     178.570 117.897  34.603  0.00  0.00    +0.292 HD
ENDBRANCH  30  33
ENDBRANCH  26  27
ENDBRANCH  17  26
ENDBRANCH  15  17
ENDBRANCH  12  13
BRANCH  12  35
ATOM     35  CB  THR A   5     174.659 122.313  25.043  0.00  0.00    +0.137 C 
ATOM     36  CG2 THR A   5     173.559 121.262  25.014  0.00  0.00    +0.034 C 
BRANCH  35  37
ATOM     37  OG1 THR A   5     174.537 123.116  23.865  0.00  0.00    -0.382 OA
ATOM     38  HG1 THR A   5     175.255 123.798  23.856  0.00  0.00    +0.210 HD
ENDBRANCH  35  37
ENDBRANCH  12  35
ENDBRANCH  10  12
ENDBRANCH   4   8
BRANCH   1  39
ATOM     39  CA  ALA A   3     179.774 123.525  26.792  0.00  0.00    +0.149 C 
ATOM     40  CB  ALA A   3     181.003 124.354  26.889  0.00  0.00    +0.031 C 
BRANCH  39  43
ATOM     41  C   LEU A   2     178.555 122.247  25.137  0.00  0.00    +0.241 C 
ATOM     42  O   LEU A   2     177.820 121.773  26.010  0.00  0.00    -0.273 OA
ATOM     43  N   ALA A   3     179.513 123.135  25.412  0.00  0.00    -0.297 N 
ATOM     44  H   ALA A   3     180.074 123.549  24.640  0.00  0.00    +0.150 HD
BRANCH  41  45
ATOM     45  CA  LEU A   2     178.336 121.845  23.680  0.00  0.00    +0.149 C 
BRANCH  45  48
ATOM     46  C   HIS A   1     177.830 123.939  22.613  0.00  0.00    +0.239 C 
ATOM     47  O   HIS A   1     176.912 124.142  23.409  0.00  0.00    -0.274 OA
ATOM     48  N   LEU A   2     178.593 122.859  22.671  0.00  0.00    -0.297 N 
ATOM     49  H   LEU A   2     179.375 122.736  21.996  0.00  0.00    +0.150 HD
BRANCH  46  50
ATOM     50  CA  HIS A   1     178.111 124.930  21.498  0.00  0.00    +0.151 C 
BRANCH  50  51
ATOM     51  N   HIS A   1     176.800 125.476  21.259  0.00  0.00    -0.238 NA
ATOM     52  H   HIS A   1     176.101 125.480  22.029  0.00  0.00    +0.142 HD
ENDBRANCH  50  51
BRANCH  50  53
ATOM     53  CB  HIS A   1     178.989 126.098  21.941  0.00  0.00    +0.074 C 
BRANCH  53  54
ATOM     54  CG  HIS A   1     180.408 125.743  22.235  0.00  0.00    +0.082 A 
ATOM     55  ND1 HIS A   1     180.765 124.917  23.276  0.00  0.00    -0.227 NA
ATOM     56  CE1 HIS A   1     182.080 124.883  23.376  0.00  0.00    +0.199 A 
ATOM     57  NE2 HIS A   1     182.588 125.653  22.431  0.00  0.00    -0.221 NA
ATOM     58  CD2 HIS A   1     181.565 126.199  21.701  0.00  0.00    +0.115 A 
ENDBRANCH  53  54
ENDBRANCH  50  53
ENDBRANCH  46  50
ENDBRANCH  45  48
BRANCH  45  59
ATOM     59  CB  LEU A   2     179.081 120.545  23.358  0.00  0.00    +0.029 C 
BRANCH  59  60
ATOM     60  CG  LEU A   2     178.341 119.521  22.489  0.00  0.00    +0.002 C 
ATOM     61  CD2 LEU A   2     177.031 119.134  23.178  0.00  0.00    +0.000 C 
ATOM     62  CD1 LEU A   2     179.229 118.272  22.268  0.00  0.00    +0.000 C 
ENDBRANCH  59  60
ENDBRANCH  45  59
ENDBRANCH  41  45
ENDBRANCH  39  43
ENDBRANCH   1  39
TORSDOF 22
REMARK  Name = ../refined-set-2016/1o1s/1o1s_pocket.pdb
REMARK  277 active torsions:
REMARK  status: ('A' for Active; 'I' for Inactive)
REMARK    1  A    between atoms: _1  and  _3
REMARK    2  A    between atoms: _3  and  _4
REMARK    3  A    between atoms: _7  and  _9
REMARK    4  A    between atoms: _9  and  _10
REMARK    5  A    between atoms: _9  and  _12
REMARK    6  A    between atoms: _12  and  _13
REMARK    7  A    between atoms: _18  and  _19
REMARK    8  A    between atoms: _21  and  _23
REMARK    9  A    between atoms: _23  and  _24
REMARK   10  A    between atoms: _23  and  _26
REMARK   11  A    between atoms: _26  and  _27
REMARK   12  A    between atoms: _27  and  _28
REMARK   13  A    between atoms: _28  and  _29
REMARK   14  A    between atoms: _29  and  _30
REMARK   15  A    between atoms: _34  and  _36
REMARK   16  A    between atoms: _36  and  _37
REMARK   17  A    between atoms: _36  and  _39
REMARK   18  A    between atoms: _39  and  _40
REMARK   19  A    between atoms: _45  and  _47
REMARK   20  A    between atoms: _47  and  _48
REMARK   21  A    between atoms: _47  and  _50
REMARK   22  A    between atoms: _50  and  _51
REMARK   23  A    between atoms: _56  and  _57
REMARK   24  A    between atoms: _59  and  _61
REMARK   25  A    between atoms: _61  and  _62
REMARK   26  A    between atoms: _61  and  _64
REMARK   27  A    between atoms: _64  and  _65
REMARK   28  A    between atoms: _65  and  _66
REMARK   29  A    between atoms: _71  and  _73
REMARK   30  A    between atoms: _73  and  _74
REMARK   31  A    between atoms: _73  and  _76
REMARK   32  A    between atoms: _76  and  _77
REMARK   33  A    between atoms: _80  and  _82
REMARK   34  A    between atoms: _82  and  _83
REMARK   35  A    between atoms: _82  and  _85
REMARK   36  A    between atoms: _85  and  _86
REMARK   37  A    between atoms: _86  and  _87
REMARK   38  A    between atoms: _87  and  _88
REMARK   39  A    between atoms: _88  and  _89
REMARK   40  A    between atoms: _93  and  _95
REMARK   41  A    between atoms: _95  and  _96
REMARK   42  A    between atoms: _95  and  _98
REMARK   43  A    between atoms: _98  and  _99
REMARK   44  A    between atoms: _104  and  _106
REMARK   45  A    between atoms: _106  and  _107
REMARK   46  A    between atoms: _106  and  _109
REMARK   47  A    between atoms: _109  and  _110
REMARK   48  A    between atoms: _115  and  _116
REMARK   49  A    between atoms: _118  and  _120
REMARK   50  A    between atoms: _120  and  _121
REMARK   51  A    between atoms: _120  and  _123
REMARK   52  A    between atoms: _123  and  _124
REMARK   53  A    between atoms: _129  and  _131
REMARK   54  A    between atoms: _131  and  _132
REMARK   55  A    between atoms: _135  and  _137
REMARK   56  A    between atoms: _137  and  _138
REMARK   57  A    between atoms: _137  and  _140
REMARK   58  A    between atoms: _140  and  _141
REMARK   59  A    between atoms: _141  and  _142
REMARK   60  A    between atoms: _147  and  _149
REMARK   61  A    between atoms: _149  and  _150
REMARK   62  A    between atoms: _149  and  _152
REMARK   63  A    between atoms: _152  and  _153
REMARK   64  A    between atoms: _155  and  _157
REMARK   65  A    between atoms: _157  and  _158
REMARK   66  A    between atoms: _157  and  _160
REMARK   67  A    between atoms: _160  and  _161
REMARK   68  A    between atoms: _164  and  _166
REMARK   69  A    between atoms: _166  and  _167
REMARK   70  A    between atoms: _170  and  _172
REMARK   71  A    between atoms: _172  and  _173
REMARK   72  A    between atoms: _172  and  _175
REMARK   73  A    between atoms: _175  and  _176
REMARK   74  A    between atoms: _178  and  _180
REMARK   75  A    between atoms: _180  and  _181
REMARK   76  A    between atoms: _180  and  _183
REMARK   77  A    between atoms: _183  and  _184
REMARK   78  A    between atoms: _194  and  _196
REMARK   79  A    between atoms: _196  and  _197
REMARK   80  A    between atoms: _196  and  _199
REMARK   81  A    between atoms: _199  and  _200
REMARK   82  A    between atoms: _210  and  _212
REMARK   83  A    between atoms: _212  and  _213
REMARK   84  A    between atoms: _212  and  _215
REMARK   85  A    between atoms: _215  and  _216
REMARK   86  A    between atoms: _221  and  _223
REMARK   87  A    between atoms: _223  and  _224
REMARK   88  A    between atoms: _223  and  _226
REMARK   89  A    between atoms: _226  and  _227
REMARK   90  A    between atoms: _230  and  _232
REMARK   91  A    between atoms: _232  and  _233
REMARK   92  A    between atoms: _237  and  _238
REMARK   93  A    between atoms: _243  and  _245
REMARK   94  A    between atoms: _245  and  _246
REMARK   95  A    between atoms: _245  and  _248
REMARK   96  A    between atoms: _248  and  _249
REMARK   97  A    between atoms: _252  and  _254
REMARK   98  A    between atoms: _254  and  _255
REMARK   99  A    between atoms: _254  and  _257
REMARK  100  A    between atoms: _257  and  _258
REMARK  101  A    between atoms: _263  and  _264
REMARK  102  A    between atoms: _266  and  _268
REMARK  103  A    between atoms: _268  and  _269
REMARK  104  A    between atoms: _272  and  _274
REMARK  105  A    between atoms: _274  and  _275
REMARK  106  A    between atoms: _274  and  _277
REMARK  107  A    between atoms: _277  and  _278
REMARK  108  A    between atoms: _278  and  _279
REMARK  109  A    between atoms: _281  and  _283
REMARK  110  A    between atoms: _283  and  _284
REMARK  111  A    between atoms: _283  and  _286
REMARK  112  A    between atoms: _286  and  _287
REMARK  113  A    between atoms: _292  and  _294
REMARK  114  A    between atoms: _294  and  _295
REMARK  115  A    between atoms: _294  and  _297
REMARK  116  A    between atoms: _297  and  _298
REMARK  117  A    between atoms: _298  and  _299
REMARK  118  A    between atoms: _302  and  _304
REMARK  119  A    between atoms: _304  and  _305
REMARK  120  A    between atoms: _304  and  _307
REMARK  121  A    between atoms: _307  and  _308
REMARK  122  A    between atoms: _311  and  _313
REMARK  123  A    between atoms: _313  and  _314
REMARK  124  A    between atoms: _313  and  _316
REMARK  125  A    between atoms: _319  and  _321
REMARK  126  A    between atoms: _321  and  _322
REMARK  127  A    between atoms: _321  and  _324
REMARK  128  A    between atoms: _324  and  _325
REMARK  129  A    between atoms: _325  and  _326
REMARK  130  A    between atoms: _326  and  _327
REMARK  131  A    between atoms: _336  and  _338
REMARK  132  A    between atoms: _338  and  _339
REMARK  133  A    between atoms: _338  and  _341
REMARK  134  A    between atoms: _341  and  _342
REMARK  135  A    between atoms: _344  and  _346
REMARK  136  A    between atoms: _346  and  _347
REMARK  137  A    between atoms: _346  and  _349
REMARK  138  A    between atoms: _349  and  _350
REMARK  139  A    between atoms: _355  and  _356
REMARK  140  A    between atoms: _358  and  _360
REMARK  141  A    between atoms: _360  and  _361
REMARK  142  A    between atoms: _360  and  _363
REMARK  143  A    between atoms: _365  and  _367
REMARK  144  A    between atoms: _367  and  _368
REMARK  145  A    between atoms: _370  and  _372
REMARK  146  A    between atoms: _372  and  _373
REMARK  147  A    between atoms: _372  and  _375
REMARK  148  A    between atoms: _375  and  _376
REMARK  149  A    between atoms: _376  and  _377
REMARK  150  A    between atoms: _379  and  _381
REMARK  151  A    between atoms: _381  and  _382
REMARK  152  A    between atoms: _381  and  _384
REMARK  153  A    between atoms: _384  and  _385
REMARK  154  A    between atoms: _385  and  _386
REMARK  155  A    between atoms: _389  and  _391
REMARK  156  A    between atoms: _391  and  _392
REMARK  157  A    between atoms: _395  and  _397
REMARK  158  A    between atoms: _397  and  _398
REMARK  159  A    between atoms: _397  and  _400
REMARK  160  A    between atoms: _400  and  _401
REMARK  161  A    between atoms: _406  and  _408
REMARK  162  A    between atoms: _408  and  _409
REMARK  163  A    between atoms: _411  and  _413
REMARK  164  A    between atoms: _413  and  _414
REMARK  165  A    between atoms: _416  and  _418
REMARK  166  A    between atoms: _418  and  _419
REMARK  167  A    between atoms: _418  and  _421
REMARK  168  A    between atoms: _421  and  _422
REMARK  169  A    between atoms: _427  and  _428
REMARK  170  A    between atoms: _430  and  _432
REMARK  171  A    between atoms: _432  and  _433
REMARK  172  A    between atoms: _432  and  _435
REMARK  173  A    between atoms: _435  and  _436
REMARK  174  A    between atoms: _439  and  _441
REMARK  175  A    between atoms: _441  and  _442
REMARK  176  A    between atoms: _441  and  _444
REMARK  177  A    between atoms: _444  and  _445
REMARK  178  A    between atoms: _451  and  _453
REMARK  179  A    between atoms: _453  and  _454
REMARK  180  A    between atoms: _453  and  _456
REMARK  181  A    between atoms: _458  and  _460
REMARK  182  A    between atoms: _460  and  _461
REMARK  183  A    between atoms: _463  and  _465
REMARK  184  A    between atoms: _465  and  _466
REMARK  185  A    between atoms: _465  and  _468
REMARK  186  A    between atoms: _468  and  _469
REMARK  187  A    between atoms: _475  and  _477
REMARK  188  A    between atoms: _477  and  _478
REMARK  189  A    between atoms: _477  and  _480
REMARK  190  A    between atoms: _480  and  _481
REMARK  191  A    between atoms: _481  and  _482
REMARK  192  A    between atoms: _487  and  _489
REMARK  193  A    between atoms: _489  and  _490
REMARK  194  A    between atoms: _492  and  _494
REMARK  195  A    between atoms: _494  and  _495
REMARK  196  A    between atoms: _494  and  _497
REMARK  197  A    between atoms: _497  and  _498
REMARK  198  A    between atoms: _498  and  _499
REMARK  199  A    between atoms: _499  and  _500
REMARK  200  A    between atoms: _509  and  _511
REMARK  201  A    between atoms: _511  and  _512
REMARK  202  A    between atoms: _511  and  _514
REMARK  203  A    between atoms: _516  and  _518
REMARK  204  A    between atoms: _518  and  _519
REMARK  205  A    between atoms: _518  and  _521
REMARK  206  A    between atoms: _521  and  _522
REMARK  207  A    between atoms: _527  and  _529
REMARK  208  A    between atoms: _529  and  _530
REMARK  209  A    between atoms: _529  and  _532
REMARK  210  A    between atoms: _532  and  _533
REMARK  211  A    between atoms: _533  and  _534
REMARK  212  A    between atoms: _534  and  _535
REMARK  213  A    between atoms: _535  and  _536
REMARK  214  A    between atoms: _540  and  _542
REMARK  215  A    between atoms: _542  and  _543
REMARK  216  A    between atoms: _542  and  _545
REMARK  217  A    between atoms: _545  and  _546
REMARK  218  A    between atoms: _549  and  _551
REMARK  219  A    between atoms: _551  and  _552
REMARK  220  A    between atoms: _551  and  _554
REMARK  221  A    between atoms: _557  and  _559
REMARK  222  A    between atoms: _559  and  _560
REMARK  223  A    between atoms: _559  and  _562
REMARK  224  A    between atoms: _562  and  _563
REMARK  225  A    between atoms: _563  and  _565
REMARK  226  A    between atoms: _565  and  ZN_690
REMARK  227  A    between atoms: _566  and  _568
REMARK  228  A    between atoms: _568  and  _569
REMARK  229  A    between atoms: _568  and  _571
REMARK  230  A    between atoms: _571  and  _572
REMARK  231  A    between atoms: _572  and  ZN_690
REMARK  232  A    between atoms: _573  and  _575
REMARK  233  A    between atoms: _575  and  _576
REMARK  234  A    between atoms: _575  and  _578
REMARK  235  A    between atoms: _578  and  _579
REMARK  236  A    between atoms: _584  and  _585
REMARK  237  A    between atoms: _587  and  _589
REMARK  238  A    between atoms: _589  and  _590
REMARK  239  A    between atoms: _589  and  _592
REMARK  240  A    between atoms: _592  and  _593
REMARK  241  A    between atoms: _599  and  _601
REMARK  242  A    between atoms: _601  and  _602
REMARK  243  A    between atoms: _601  and  _604
REMARK  244  A    between atoms: _604  and  _605
REMARK  245  A    between atoms: _615  and  _617
REMARK  246  A    between atoms: _617  and  _618
REMARK  247  A    between atoms: _617  and  _620
REMARK  248  A    between atoms: _620  and  _621
REMARK  249  A    between atoms: _621  and  _622
REMARK  250  A    between atoms: _627  and  _629
REMARK  251  A    between atoms: _629  and  _630
REMARK  252  A    between atoms: _629  and  _632
REMARK  253  A    between atoms: _632  and  _633
REMARK  254  A    between atoms: _636  and  _638
REMARK  255  A    between atoms: _638  and  _639
REMARK  256  A    between atoms: _638  and  _641
REMARK  257  A    between atoms: _641  and  _642
REMARK  258  A    between atoms: _642  and  _643
REMARK  259  A    between atoms: _643  and  _644
REMARK  260  A    between atoms: _644  and  _645
REMARK  261  A    between atoms: _649  and  _651
REMARK  262  A    between atoms: _651  and  _652
REMARK  263  A    between atoms: _651  and  _654
REMARK  264  A    between atoms: _654  and  _655
REMARK  265  A    between atoms: _655  and  _656
REMARK  266  A    between atoms: _656  and  _657
REMARK  267  A    between atoms: _657  and  _658
REMARK  268  A    between atoms: _662  and  _664
REMARK  269  A    between atoms: _664  and  _665
REMARK  270  A    between atoms: _664  and  _667
REMARK  271  A    between atoms: _667  and  _668
REMARK  272  A    between atoms: _673  and  _674
REMARK  273  A    between atoms: _676  and  _678
REMARK  274  A    between atoms: _678  and  _679
REMARK  275  A    between atoms: _678  and  _681
REMARK  276  A    between atoms: _681  and  _682
REMARK  277  A    between atoms: _687  and  _688
REMARK                            x       y       z     vdW  Elec       q    Type
REMARK                         _______ _______ _______ _____ _____    ______ ____
ROOT
ATOM      1  C   MET A   1     181.318 121.840  20.125  0.00  0.00    +0.238 C 
ATOM      2  O   MET A   1     180.358 122.180  20.806  0.00  0.00    -0.274 OA
ATOM      3  N   HIS A   2     181.445 122.146  18.843  0.00  0.00    -0.298 N 
ATOM      4  H   HIS A   2     182.309 121.835  18.354  0.00  0.00    +0.150 HD
ENDROOT
BRANCH   1   5
ATOM      5  CA  MET A   1     182.469 121.021  20.706  0.00  0.00    +0.146 C 
BRANCH   5   6
ATOM      6  N   MET A   1     183.076 120.220  19.637  0.00  0.00    -0.238 NA
ATOM      7  H   MET A   1     184.011 120.485  19.266  0.00  0.00    +0.142 HD
ENDBRANCH   5   6
BRANCH   5   8
ATOM      8  CB  MET A   1     183.496 121.946  21.344  0.00  0.00    +0.038 C 
BRANCH   8   9
ATOM      9  CG  MET A   1     184.386 121.267  22.377  0.00  0.00    +0.060 C 
BRANCH   9  10
ATOM     10  SD  MET A   1     183.454 120.583  23.762  0.00  0.00    -0.139 S 
ATOM     11  CE  MET A   1     183.078 122.045  24.710  0.00  0.00    +0.069 C 
ENDBRANCH   9  10
ENDBRANCH   8   9
ENDBRANCH   5   8
ENDBRANCH   1   5
BRANCH   3  12
ATOM     12  CA  HIS A   2     180.452 122.892  18.068  0.00  0.00    +0.143 C 
BRANCH  12  13
ATOM     13  C   HIS A   2     180.834 122.692  16.595  0.00  0.00    +0.227 C 
ATOM     14  O   HIS A   2     181.870 122.085  16.290  0.00  0.00    -0.286 OA
ENDBRANCH  12  13
BRANCH  12  15
ATOM     15  CB  HIS A   2     180.429 124.385  18.450  0.00  0.00    +0.075 C 
BRANCH  15  16
ATOM     16  CG  HIS A   2     181.696 125.119  18.137  0.00  0.00    +0.082 A 
ATOM     17  CD2 HIS A   2     182.913 125.094  18.729  0.00  0.00    +0.115 A 
ATOM     18  NE2 HIS A   2     183.725 125.948  18.025  0.00  0.00    -0.221 NA
ATOM     19  CE1 HIS A   2     183.030 126.485  17.039  0.00  0.00    +0.199 A 
ATOM     20  ND1 HIS A   2     181.802 126.001  17.085  0.00  0.00    -0.227 NA
ENDBRANCH  15  16
ENDBRANCH  12  15
ENDBRANCH   3  12
TORSDOF 9
REMARK  Name = ../refined-set-2016/1o1s/1o1s_pocket.pdb
REMARK  277 active torsions:
REMARK  status: ('A' for Active; 'I' for Inactive)
REMARK    1  A    between atoms: _1  and  _3
REMARK    2  A    between atoms: _3  and  _4
REMARK    3  A    between atoms: _7  and  _9
REMARK    4  A    between atoms: _9  and  _10
REMARK    5  A    between atoms: _9  and  _12
REMARK    6  A    between atoms: _12  and  _13
REMARK    7  A    between atoms: _18  and  _19
REMARK    8  A    between atoms: _21  and  _23
REMARK    9  A    between atoms: _23  and  _24
REMARK   10  A    between atoms: _23  and  _26
REMARK   11  A    between atoms: _26  and  _27
REMARK   12  A    between atoms: _27  and  _28
REMARK   13  A    between atoms: _28  and  _29
REMARK   14  A    between atoms: _29  and  _30
REMARK   15  A    between atoms: _34  and  _36
REMARK   16  A    between atoms: _36  and  _37
REMARK   17  A    between atoms: _36  and  _39
REMARK   18  A    between atoms: _39  and  _40
REMARK   19  A    between atoms: _45  and  _47
REMARK   20  A    between atoms: _47  and  _48
REMARK   21  A    between atoms: _47  and  _50
REMARK   22  A    between atoms: _50  and  _51
REMARK   23  A    between atoms: _56  and  _57
REMARK   24  A    between atoms: _59  and  _61
REMARK   25  A    between atoms: _61  and  _62
REMARK   26  A    between atoms: _61  and  _64
REMARK   27  A    between atoms: _64  and  _65
REMARK   28  A    between atoms: _65  and  _66
REMARK   29  A    between atoms: _71  and  _73
REMARK   30  A    between atoms: _73  and  _74
REMARK   31  A    between atoms: _73  and  _76
REMARK   32  A    between atoms: _76  and  _77
REMARK   33  A    between atoms: _80  and  _82
REMARK   34  A    between atoms: _82  and  _83
REMARK   35  A    between atoms: _82  and  _85
REMARK   36  A    between atoms: _85  and  _86
REMARK   37  A    between atoms: _86  and  _87
REMARK   38  A    between atoms: _87  and  _88
REMARK   39  A    between atoms: _88  and  _89
REMARK   40  A    between atoms: _93  and  _95
REMARK   41  A    between atoms: _95  and  _96
REMARK   42  A    between atoms: _95  and  _98
REMARK   43  A    between atoms: _98  and  _99
REMARK   44  A    between atoms: _104  and  _106
REMARK   45  A    between atoms: _106  and  _107
REMARK   46  A    between atoms: _106  and  _109
REMARK   47  A    between atoms: _109  and  _110
REMARK   48  A    between atoms: _115  and  _116
REMARK   49  A    between atoms: _118  and  _120
REMARK   50  A    between atoms: _120  and  _121
REMARK   51  A    between atoms: _120  and  _123
REMARK   52  A    between atoms: _123  and  _124
REMARK   53  A    between atoms: _129  and  _131
REMARK   54  A    between atoms: _131  and  _132
REMARK   55  A    between atoms: _135  and  _137
REMARK   56  A    between atoms: _137  and  _138
REMARK   57  A    between atoms: _137  and  _140
REMARK   58  A    between atoms: _140  and  _141
REMARK   59  A    between atoms: _141  and  _142
REMARK   60  A    between atoms: _147  and  _149
REMARK   61  A    between atoms: _149  and  _150
REMARK   62  A    between atoms: _149  and  _152
REMARK   63  A    between atoms: _152  and  _153
REMARK   64  A    between atoms: _155  and  _157
REMARK   65  A    between atoms: _157  and  _158
REMARK   66  A    between atoms: _157  and  _160
REMARK   67  A    between atoms: _160  and  _161
REMARK   68  A    between atoms: _164  and  _166
REMARK   69  A    between atoms: _166  and  _167
REMARK   70  A    between atoms: _170  and  _172
REMARK   71  A    between atoms: _172  and  _173
REMARK   72  A    between atoms: _172  and  _175
REMARK   73  A    between atoms: _175  and  _176
REMARK   74  A    between atoms: _178  and  _180
REMARK   75  A    between atoms: _180  and  _181
REMARK   76  A    between atoms: _180  and  _183
REMARK   77  A    between atoms: _183  and  _184
REMARK   78  A    between atoms: _194  and  _196
REMARK   79  A    between atoms: _196  and  _197
REMARK   80  A    between atoms: _196  and  _199
REMARK   81  A    between atoms: _199  and  _200
REMARK   82  A    between atoms: _210  and  _212
REMARK   83  A    between atoms: _212  and  _213
REMARK   84  A    between atoms: _212  and  _215
REMARK   85  A    between atoms: _215  and  _216
REMARK   86  A    between atoms: _221  and  _223
REMARK   87  A    between atoms: _223  and  _224
REMARK   88  A    between atoms: _223  and  _226
REMARK   89  A    between atoms: _226  and  _227
REMARK   90  A    between atoms: _230  and  _232
REMARK   91  A    between atoms: _232  and  _233
REMARK   92  A    between atoms: _237  and  _238
REMARK   93  A    between atoms: _243  and  _245
REMARK   94  A    between atoms: _245  and  _246
REMARK   95  A    between atoms: _245  and  _248
REMARK   96  A    between atoms: _248  and  _249
REMARK   97  A    between atoms: _252  and  _254
REMARK   98  A    between atoms: _254  and  _255
REMARK   99  A    between atoms: _254  and  _257
REMARK  100  A    between atoms: _257  and  _258
REMARK  101  A    between atoms: _263  and  _264
REMARK  102  A    between atoms: _266  and  _268
REMARK  103  A    between atoms: _268  and  _269
REMARK  104  A    between atoms: _272  and  _274
REMARK  105  A    between atoms: _274  and  _275
REMARK  106  A    between atoms: _274  and  _277
REMARK  107  A    between atoms: _277  and  _278
REMARK  108  A    between atoms: _278  and  _279
REMARK  109  A    between atoms: _281  and  _283
REMARK  110  A    between atoms: _283  and  _284
REMARK  111  A    between atoms: _283  and  _286
REMARK  112  A    between atoms: _286  and  _287
REMARK  113  A    between atoms: _292  and  _294
REMARK  114  A    between atoms: _294  and  _295
REMARK  115  A    between atoms: _294  and  _297
REMARK  116  A    between atoms: _297  and  _298
REMARK  117  A    between atoms: _298  and  _299
REMARK  118  A    between atoms: _302  and  _304
REMARK  119  A    between atoms: _304  and  _305
REMARK  120  A    between atoms: _304  and  _307
REMARK  121  A    between atoms: _307  and  _308
REMARK  122  A    between atoms: _311  and  _313
REMARK  123  A    between atoms: _313  and  _314
REMARK  124  A    between atoms: _313  and  _316
REMARK  125  A    between atoms: _319  and  _321
REMARK  126  A    between atoms: _321  and  _322
REMARK  127  A    between atoms: _321  and  _324
REMARK  128  A    between atoms: _324  and  _325
REMARK  129  A    between atoms: _325  and  _326
REMARK  130  A    between atoms: _326  and  _327
REMARK  131  A    between atoms: _336  and  _338
REMARK  132  A    between atoms: _338  and  _339
REMARK  133  A    between atoms: _338  and  _341
REMARK  134  A    between atoms: _341  and  _342
REMARK  135  A    between atoms: _344  and  _346
REMARK  136  A    between atoms: _346  and  _347
REMARK  137  A    between atoms: _346  and  _349
REMARK  138  A    between atoms: _349  and  _350
REMARK  139  A    between atoms: _355  and  _356
REMARK  140  A    between atoms: _358  and  _360
REMARK  141  A    between atoms: _360  and  _361
REMARK  142  A    between atoms: _360  and  _363
REMARK  143  A    between atoms: _365  and  _367
REMARK  144  A    between atoms: _367  and  _368
REMARK  145  A    between atoms: _370  and  _372
REMARK  146  A    between atoms: _372  and  _373
REMARK  147  A    between atoms: _372  and  _375
REMARK  148  A    between atoms: _375  and  _376
REMARK  149  A    between atoms: _376  and  _377
REMARK  150  A    between atoms: _379  and  _381
REMARK  151  A    between atoms: _381  and  _382
REMARK  152  A    between atoms: _381  and  _384
REMARK  153  A    between atoms: _384  and  _385
REMARK  154  A    between atoms: _385  and  _386
REMARK  155  A    between atoms: _389  and  _391
REMARK  156  A    between atoms: _391  and  _392
REMARK  157  A    between atoms: _395  and  _397
REMARK  158  A    between atoms: _397  and  _398
REMARK  159  A    between atoms: _397  and  _400
REMARK  160  A    between atoms: _400  and  _401
REMARK  161  A    between atoms: _406  and  _408
REMARK  162  A    between atoms: _408  and  _409
REMARK  163  A    between atoms: _411  and  _413
REMARK  164  A    between atoms: _413  and  _414
REMARK  165  A    between atoms: _416  and  _418
REMARK  166  A    between atoms: _418  and  _419
REMARK  167  A    between atoms: _418  and  _421
REMARK  168  A    between atoms: _421  and  _422
REMARK  169  A    between atoms: _427  and  _428
REMARK  170  A    between atoms: _430  and  _432
REMARK  171  A    between atoms: _432  and  _433
REMARK  172  A    between atoms: _432  and  _435
REMARK  173  A    between atoms: _435  and  _436
REMARK  174  A    between atoms: _439  and  _441
REMARK  175  A    between atoms: _441  and  _442
REMARK  176  A    between atoms: _441  and  _444
REMARK  177  A    between atoms: _444  and  _445
REMARK  178  A    between atoms: _451  and  _453
REMARK  179  A    between atoms: _453  and  _454
REMARK  180  A    between atoms: _453  and  _456
REMARK  181  A    between atoms: _458  and  _460
REMARK  182  A    between atoms: _460  and  _461
REMARK  183  A    between atoms: _463  and  _465
REMARK  184  A    between atoms: _465  and  _466
REMARK  185  A    between atoms: _465  and  _468
REMARK  186  A    between atoms: _468  and  _469
REMARK  187  A    between atoms: _475  and  _477
REMARK  188  A    between atoms: _477  and  _478
REMARK  189  A    between atoms: _477  and  _480
REMARK  190  A    between atoms: _480  and  _481
REMARK  191  A    between atoms: _481  and  _482
REMARK  192  A    between atoms: _487  and  _489
REMARK  193  A    between atoms: _489  and  _490
REMARK  194  A    between atoms: _492  and  _494
REMARK  195  A    between atoms: _494  and  _495
REMARK  196  A    between atoms: _494  and  _497
REMARK  197  A    between atoms: _497  and  _498
REMARK  198  A    between atoms: _498  and  _499
REMARK  199  A    between atoms: _499  and  _500
REMARK  200  A    between atoms: _509  and  _511
REMARK  201  A    between atoms: _511  and  _512
REMARK  202  A    between atoms: _511  and  _514
REMARK  203  A    between atoms: _516  and  _518
REMARK  204  A    between atoms: _518  and  _519
REMARK  205  A    between atoms: _518  and  _521
REMARK  206  A    between atoms: _521  and  _522
REMARK  207  A    between atoms: _527  and  _529
REMARK  208  A    between atoms: _529  and  _530
REMARK  209  A    between atoms: _529  and  _532
REMARK  210  A    between atoms: _532  and  _533
REMARK  211  A    between atoms: _533  and  _534
REMARK  212  A    between atoms: _534  and  _535
REMARK  213  A    between atoms: _535  and  _536
REMARK  214  A    between atoms: _540  and  _542
REMARK  215  A    between atoms: _542  and  _543
REMARK  216  A    between atoms: _542  and  _545
REMARK  217  A    between atoms: _545  and  _546
REMARK  218  A    between atoms: _549  and  _551
REMARK  219  A    between atoms: _551  and  _552
REMARK  220  A    between atoms: _551  and  _554
REMARK  221  A    between atoms: _557  and  _559
REMARK  222  A    between atoms: _559  and  _560
REMARK  223  A    between atoms: _559  and  _562
REMARK  224  A    between atoms: _562  and  _563
REMARK  225  A    between atoms: _563  and  _565
REMARK  226  A    between atoms: _565  and  ZN_690
REMARK  227  A    between atoms: _566  and  _568
REMARK  228  A    between atoms: _568  and  _569
REMARK  229  A    between atoms: _568  and  _571
REMARK  230  A    between atoms: _571  and  _572
REMARK  231  A    between atoms: _572  and  ZN_690
REMARK  232  A    between atoms: _573  and  _575
REMARK  233  A    between atoms: _575  and  _576
REMARK  234  A    between atoms: _575  and  _578
REMARK  235  A    between atoms: _578  and  _579
REMARK  236  A    between atoms: _584  and  _585
REMARK  237  A    between atoms: _587  and  _589
REMARK  238  A    between atoms: _589  and  _590
REMARK  239  A    between atoms: _589  and  _592
REMARK  240  A    between atoms: _592  and  _593
REMARK  241  A    between atoms: _599  and  _601
REMARK  242  A    between atoms: _601  and  _602
REMARK  243  A    between atoms: _601  and  _604
REMARK  244  A    between atoms: _604  and  _605
REMARK  245  A    between atoms: _615  and  _617
REMARK  246  A    between atoms: _617  and  _618
REMARK  247  A    between atoms: _617  and  _620
REMARK  248  A    between atoms: _620  and  _621
REMARK  249  A    between atoms: _621  and  _622
REMARK  250  A    between atoms: _627  and  _629
REMARK  251  A    between atoms: _629  and  _630
REMARK  252  A    between atoms: _629  and  _632
REMARK  253  A    between atoms: _632  and  _633
REMARK  254  A    between atoms: _636  and  _638
REMARK  255  A    between atoms: _638  and  _639
REMARK  256  A    between atoms: _638  and  _641
REMARK  257  A    between atoms: _641  and  _642
REMARK  258  A    between atoms: _642  and  _643
REMARK  259  A    between atoms: _643  and  _644
REMARK  260  A    between atoms: _644  and  _645
REMARK  261  A    between atoms: _649  and  _651
REMARK  262  A    between atoms: _651  and  _652
REMARK  263  A    between atoms: _651  and  _654
REMARK  264  A    between atoms: _654  and  _655
REMARK  265  A    between atoms: _655  and  _656
REMARK  266  A    between atoms: _656  and  _657
REMARK  267  A    between atoms: _657  and  _658
REMARK  268  A    between atoms: _662  and  _664
REMARK  269  A    between atoms: _664  and  _665
REMARK  270  A    between atoms: _664  and  _667
REMARK  271  A    between atoms: _667  and  _668
REMARK  272  A    between atoms: _673  and  _674
REMARK  273  A    between atoms: _676  and  _678
REMARK  274  A    between atoms: _678  and  _679
REMARK  275  A    between atoms: _678  and  _681
REMARK  276  A    between atoms: _681  and  _682
REMARK  277  A    between atoms: _687  and  _688
REMARK                            x       y       z     vdW  Elec       q    Type
REMARK                         _______ _______ _______ _____ _____    ______ ____
ROOT
ATOM      1  CA  GLU A   1     187.511 121.530  17.991  0.00  0.00    +0.134 C 
ENDROOT
BRANCH   1   2
ATOM      2  N   GLU A   1     186.552 122.537  17.542  0.00  0.00    -0.239 NA
ATOM      3  H   GLU A   1     186.353 123.348  18.162  0.00  0.00    +0.142 HD
ENDBRANCH   1   2
BRANCH   1   4
ATOM      4  C   GLU A   1     186.953 120.280  18.699  0.00  0.00    +0.224 C 
ATOM      5  O   GLU A   1     185.803 120.235  19.130  0.00  0.00    -0.287 OA
ENDBRANCH   1   4
BRANCH   1   6
ATOM      6  CB  GLU A   1     188.597 122.210  18.866  0.00  0.00    +0.037 C 
BRANCH   6   7
ATOM      7  CG  GLU A   1     188.153 122.710  20.278  0.00  0.00    +0.116 C 
BRANCH   7   8
ATOM      8  CD  GLU A   1     187.357 124.037  20.295  0.00  0.00    +0.365 C 
ATOM      9  OE2 GLU A   1     186.720 124.306  21.343  0.00  0.00    -0.246 OA
ATOM     10  OE1 GLU A   1     187.375 124.808  19.300  0.00  0.00    -0.246 OA
ENDBRANCH   7   8
ENDBRANCH   6   7
ENDBRANCH   1   6
TORSDOF 5
REMARK  Name = ../refined-set-2016/1o1s/1o1s_pocket.pdb
REMARK  277 active torsions:
REMARK  status: ('A' for Active; 'I' for Inactive)
REMARK    1  A    between atoms: _1  and  _3
REMARK    2  A    between atoms: _3  and  _4
REMARK    3  A    between atoms: _7  and  _9
REMARK    4  A    between atoms: _9  and  _10
REMARK    5  A    between atoms: _9  and  _12
REMARK    6  A    between atoms: _12  and  _13
REMARK    7  A    between atoms: _18  and  _19
REMARK    8  A    between atoms: _21  and  _23
REMARK    9  A    between atoms: _23  and  _24
REMARK   10  A    between atoms: _23  and  _26
REMARK   11  A    between atoms: _26  and  _27
REMARK   12  A    between atoms: _27  and  _28
REMARK   13  A    between atoms: _28  and  _29
REMARK   14  A    between atoms: _29  and  _30
REMARK   15  A    between atoms: _34  and  _36
REMARK   16  A    between atoms: _36  and  _37
REMARK   17  A    between atoms: _36  and  _39
REMARK   18  A    between atoms: _39  and  _40
REMARK   19  A    between atoms: _45  and  _47
REMARK   20  A    between atoms: _47  and  _48
REMARK   21  A    between atoms: _47  and  _50
REMARK   22  A    between atoms: _50  and  _51
REMARK   23  A    between atoms: _56  and  _57
REMARK   24  A    between atoms: _59  and  _61
REMARK   25  A    between atoms: _61  and  _62
REMARK   26  A    between atoms: _61  and  _64
REMARK   27  A    between atoms: _64  and  _65
REMARK   28  A    between atoms: _65  and  _66
REMARK   29  A    between atoms: _71  and  _73
REMARK   30  A    between atoms: _73  and  _74
REMARK   31  A    between atoms: _73  and  _76
REMARK   32  A    between atoms: _76  and  _77
REMARK   33  A    between atoms: _80  and  _82
REMARK   34  A    between atoms: _82  and  _83
REMARK   35  A    between atoms: _82  and  _85
REMARK   36  A    between atoms: _85  and  _86
REMARK   37  A    between atoms: _86  and  _87
REMARK   38  A    between atoms: _87  and  _88
REMARK   39  A    between atoms: _88  and  _89
REMARK   40  A    between atoms: _93  and  _95
REMARK   41  A    between atoms: _95  and  _96
REMARK   42  A    between atoms: _95  and  _98
REMARK   43  A    between atoms: _98  and  _99
REMARK   44  A    between atoms: _104  and  _106
REMARK   45  A    between atoms: _106  and  _107
REMARK   46  A    between atoms: _106  and  _109
REMARK   47  A    between atoms: _109  and  _110
REMARK   48  A    between atoms: _115  and  _116
REMARK   49  A    between atoms: _118  and  _120
REMARK   50  A    between atoms: _120  and  _121
REMARK   51  A    between atoms: _120  and  _123
REMARK   52  A    between atoms: _123  and  _124
REMARK   53  A    between atoms: _129  and  _131
REMARK   54  A    between atoms: _131  and  _132
REMARK   55  A    between atoms: _135  and  _137
REMARK   56  A    between atoms: _137  and  _138
REMARK   57  A    between atoms: _137  and  _140
REMARK   58  A    between atoms: _140  and  _141
REMARK   59  A    between atoms: _141  and  _142
REMARK   60  A    between atoms: _147  and  _149
REMARK   61  A    between atoms: _149  and  _150
REMARK   62  A    between atoms: _149  and  _152
REMARK   63  A    between atoms: _152  and  _153
REMARK   64  A    between atoms: _155  and  _157
REMARK   65  A    between atoms: _157  and  _158
REMARK   66  A    between atoms: _157  and  _160
REMARK   67  A    between atoms: _160  and  _161
REMARK   68  A    between atoms: _164  and  _166
REMARK   69  A    between atoms: _166  and  _167
REMARK   70  A    between atoms: _170  and  _172
REMARK   71  A    between atoms: _172  and  _173
REMARK   72  A    between atoms: _172  and  _175
REMARK   73  A    between atoms: _175  and  _176
REMARK   74  A    between atoms: _178  and  _180
REMARK   75  A    between atoms: _180  and  _181
REMARK   76  A    between atoms: _180  and  _183
REMARK   77  A    between atoms: _183  and  _184
REMARK   78  A    between atoms: _194  and  _196
REMARK   79  A    between atoms: _196  and  _197
REMARK   80  A    between atoms: _196  and  _199
REMARK   81  A    between atoms: _199  and  _200
REMARK   82  A    between atoms: _210  and  _212
REMARK   83  A    between atoms: _212  and  _213
REMARK   84  A    between atoms: _212  and  _215
REMARK   85  A    between atoms: _215  and  _216
REMARK   86  A    between atoms: _221  and  _223
REMARK   87  A    between atoms: _223  and  _224
REMARK   88  A    between atoms: _223  and  _226
REMARK   89  A    between atoms: _226  and  _227
REMARK   90  A    between atoms: _230  and  _232
REMARK   91  A    between atoms: _232  and  _233
REMARK   92  A    between atoms: _237  and  _238
REMARK   93  A    between atoms: _243  and  _245
REMARK   94  A    between atoms: _245  and  _246
REMARK   95  A    between atoms: _245  and  _248
REMARK   96  A    between atoms: _248  and  _249
REMARK   97  A    between atoms: _252  and  _254
REMARK   98  A    between atoms: _254  and  _255
REMARK   99  A    between atoms: _254  and  _257
REMARK  100  A    between atoms: _257  and  _258
REMARK  101  A    between atoms: _263  and  _264
REMARK  102  A    between atoms: _266  and  _268
REMARK  103  A    between atoms: _268  and  _269
REMARK  104  A    between atoms: _272  and  _274
REMARK  105  A    between atoms: _274  and  _275
REMARK  106  A    between atoms: _274  and  _277
REMARK  107  A    between atoms: _277  and  _278
REMARK  108  A    between atoms: _278  and  _279
REMARK  109  A    between atoms: _281  and  _283
REMARK  110  A    between atoms: _283  and  _284
REMARK  111  A    between atoms: _283  and  _286
REMARK  112  A    between atoms: _286  and  _287
REMARK  113  A    between atoms: _292  and  _294
REMARK  114  A    between atoms: _294  and  _295
REMARK  115  A    between atoms: _294  and  _297
REMARK  116  A    between atoms: _297  and  _298
REMARK  117  A    between atoms: _298  and  _299
REMARK  118  A    between atoms: _302  and  _304
REMARK  119  A    between atoms: _304  and  _305
REMARK  120  A    between atoms: _304  and  _307
REMARK  121  A    between atoms: _307  and  _308
REMARK  122  A    between atoms: _311  and  _313
REMARK  123  A    between atoms: _313  and  _314
REMARK  124  A    between atoms: _313  and  _316
REMARK  125  A    between atoms: _319  and  _321
REMARK  126  A    between atoms: _321  and  _322
REMARK  127  A    between atoms: _321  and  _324
REMARK  128  A    between atoms: _324  and  _325
REMARK  129  A    between atoms: _325  and  _326
REMARK  130  A    between atoms: _326  and  _327
REMARK  131  A    between atoms: _336  and  _338
REMARK  132  A    between atoms: _338  and  _339
REMARK  133  A    between atoms: _338  and  _341
REMARK  134  A    between atoms: _341  and  _342
REMARK  135  A    between atoms: _344  and  _346
REMARK  136  A    between atoms: _346  and  _347
REMARK  137  A    between atoms: _346  and  _349
REMARK  138  A    between atoms: _349  and  _350
REMARK  139  A    between atoms: _355  and  _356
REMARK  140  A    between atoms: _358  and  _360
REMARK  141  A    between atoms: _360  and  _361
REMARK  142  A    between atoms: _360  and  _363
REMARK  143  A    between atoms: _365  and  _367
REMARK  144  A    between atoms: _367  and  _368
REMARK  145  A    between atoms: _370  and  _372
REMARK  146  A    between atoms: _372  and  _373
REMARK  147  A    between atoms: _372  and  _375
REMARK  148  A    between atoms: _375  and  _376
REMARK  149  A    between atoms: _376  and  _377
REMARK  150  A    between atoms: _379  and  _381
REMARK  151  A    between atoms: _381  and  _382
REMARK  152  A    between atoms: _381  and  _384
REMARK  153  A    between atoms: _384  and  _385
REMARK  154  A    between atoms: _385  and  _386
REMARK  155  A    between atoms: _389  and  _391
REMARK  156  A    between atoms: _391  and  _392
REMARK  157  A    between atoms: _395  and  _397
REMARK  158  A    between atoms: _397  and  _398
REMARK  159  A    between atoms: _397  and  _400
REMARK  160  A    between atoms: _400  and  _401
REMARK  161  A    between atoms: _406  and  _408
REMARK  162  A    between atoms: _408  and  _409
REMARK  163  A    between atoms: _411  and  _413
REMARK  164  A    between atoms: _413  and  _414
REMARK  165  A    between atoms: _416  and  _418
REMARK  166  A    between atoms: _418  and  _419
REMARK  167  A    between atoms: _418  and  _421
REMARK  168  A    between atoms: _421  and  _422
REMARK  169  A    between atoms: _427  and  _428
REMARK  170  A    between atoms: _430  and  _432
REMARK  171  A    between atoms: _432  and  _433
REMARK  172  A    between atoms: _432  and  _435
REMARK  173  A    between atoms: _435  and  _436
REMARK  174  A    between atoms: _439  and  _441
REMARK  175  A    between atoms: _441  and  _442
REMARK  176  A    between atoms: _441  and  _444
REMARK  177  A    between atoms: _444  and  _445
REMARK  178  A    between atoms: _451  and  _453
REMARK  179  A    between atoms: _453  and  _454
REMARK  180  A    between atoms: _453  and  _456
REMARK  181  A    between atoms: _458  and  _460
REMARK  182  A    between atoms: _460  and  _461
REMARK  183  A    between atoms: _463  and  _465
REMARK  184  A    between atoms: _465  and  _466
REMARK  185  A    between atoms: _465  and  _468
REMARK  186  A    between atoms: _468  and  _469
REMARK  187  A    between atoms: _475  and  _477
REMARK  188  A    between atoms: _477  and  _478
REMARK  189  A    between atoms: _477  and  _480
REMARK  190  A    between atoms: _480  and  _481
REMARK  191  A    between atoms: _481  and  _482
REMARK  192  A    between atoms: _487  and  _489
REMARK  193  A    between atoms: _489  and  _490
REMARK  194  A    between atoms: _492  and  _494
REMARK  195  A    between atoms: _494  and  _495
REMARK  196  A    between atoms: _494  and  _497
REMARK  197  A    between atoms: _497  and  _498
REMARK  198  A    between atoms: _498  and  _499
REMARK  199  A    between atoms: _499  and  _500
REMARK  200  A    between atoms: _509  and  _511
REMARK  201  A    between atoms: _511  and  _512
REMARK  202  A    between atoms: _511  and  _514
REMARK  203  A    between atoms: _516  and  _518
REMARK  204  A    between atoms: _518  and  _519
REMARK  205  A    between atoms: _518  and  _521
REMARK  206  A    between atoms: _521  and  _522
REMARK  207  A    between atoms: _527  and  _529
REMARK  208  A    between atoms: _529  and  _530
REMARK  209  A    between atoms: _529  and  _532
REMARK  210  A    between atoms: _532  and  _533
REMARK  211  A    between atoms: _533  and  _534
REMARK  212  A    between atoms: _534  and  _535
REMARK  213  A    between atoms: _535  and  _536
REMARK  214  A    between atoms: _540  and  _542
REMARK  215  A    between atoms: _542  and  _543
REMARK  216  A    between atoms: _542  and  _545
REMARK  217  A    between atoms: _545  and  _546
REMARK  218  A    between atoms: _549  and  _551
REMARK  219  A    between atoms: _551  and  _552
REMARK  220  A    between atoms: _551  and  _554
REMARK  221  A    between atoms: _557  and  _559
REMARK  222  A    between atoms: _559  and  _560
REMARK  223  A    between atoms: _559  and  _562
REMARK  224  A    between atoms: _562  and  _563
REMARK  225  A    between atoms: _563  and  _565
REMARK  226  A    between atoms: _565  and  ZN_690
REMARK  227  A    between atoms: _566  and  _568
REMARK  228  A    between atoms: _568  and  _569
REMARK  229  A    between atoms: _568  and  _571
REMARK  230  A    between atoms: _571  and  _572
REMARK  231  A    between atoms: _572  and  ZN_690
REMARK  232  A    between atoms: _573  and  _575
REMARK  233  A    between atoms: _575  and  _576
REMARK  234  A    between atoms: _575  and  _578
REMARK  235  A    between atoms: _578  and  _579
REMARK  236  A    between atoms: _584  and  _585
REMARK  237  A    between atoms: _587  and  _589
REMARK  238  A    between atoms: _589  and  _590
REMARK  239  A    between atoms: _589  and  _592
REMARK  240  A    between atoms: _592  and  _593
REMARK  241  A    between atoms: _599  and  _601
REMARK  242  A    between atoms: _601  and  _602
REMARK  243  A    between atoms: _601  and  _604
REMARK  244  A    between atoms: _604  and  _605
REMARK  245  A    between atoms: _615  and  _617
REMARK  246  A    between atoms: _617  and  _618
REMARK  247  A    between atoms: _617  and  _620
REMARK  248  A    between atoms: _620  and  _621
REMARK  249  A    between atoms: _621  and  _622
REMARK  250  A    between atoms: _627  and  _629
REMARK  251  A    between atoms: _629  and  _630
REMARK  252  A    between atoms: _629  and  _632
REMARK  253  A    between atoms: _632  and  _633
REMARK  254  A    between atoms: _636  and  _638
REMARK  255  A    between atoms: _638  and  _639
REMARK  256  A    between atoms: _638  and  _641
REMARK  257  A    between atoms: _641  and  _642
REMARK  258  A    between atoms: _642  and  _643
REMARK  259  A    between atoms: _643  and  _644
REMARK  260  A    between atoms: _644  and  _645
REMARK  261  A    between atoms: _649  and  _651
REMARK  262  A    between atoms: _651  and  _652
REMARK  263  A    between atoms: _651  and  _654
REMARK  264  A    between atoms: _654  and  _655
REMARK  265  A    between atoms: _655  and  _656
REMARK  266  A    between atoms: _656  and  _657
REMARK  267  A    between atoms: _657  and  _658
REMARK  268  A    between atoms: _662  and  _664
REMARK  269  A    between atoms: _664  and  _665
REMARK  270  A    between atoms: _664  and  _667
REMARK  271  A    between atoms: _667  and  _668
REMARK  272  A    between atoms: _673  and  _674
REMARK  273  A    between atoms: _676  and  _678
REMARK  274  A    between atoms: _678  and  _679
REMARK  275  A    between atoms: _678  and  _681
REMARK  276  A    between atoms: _681  and  _682
REMARK  277  A    between atoms: _687  and  _688
REMARK                            x       y       z     vdW  Elec       q    Type
REMARK                         _______ _______ _______ _____ _____    ______ ____
ROOT
ATOM      1  CA  ARG A   3     185.040 117.419  27.181  0.00  0.00    +0.149 C 
ENDROOT
BRANCH   1   4
ATOM      2  C   VAL A   2     186.111 115.339  26.503  0.00  0.00    +0.241 C 
ATOM      3  O   VAL A   2     185.173 114.671  26.936  0.00  0.00    -0.273 OA
ATOM      4  N   ARG A   3     186.134 116.672  26.575  0.00  0.00    -0.297 N 
ATOM      5  H   ARG A   3     186.951 117.188  26.190  0.00  0.00    +0.150 HD
BRANCH   2   6
ATOM      6  CA  VAL A   2     187.302 114.635  25.833  0.00  0.00    +0.148 C 
BRANCH   6   8
ATOM      7  C   ASP A   1     187.580 116.085  23.879  0.00  0.00    +0.239 C 
ATOM      8  N   VAL A   2     188.114 115.446  24.921  0.00  0.00    -0.297 N 
ATOM      9  H   VAL A   2     189.137 115.526  25.091  0.00  0.00    +0.150 HD
ATOM     10  O   ASP A   1     186.378 116.060  23.619  0.00  0.00    -0.274 OA
BRANCH   7  11
ATOM     11  CA  ASP A   1     188.517 116.858  22.959  0.00  0.00    +0.156 C 
BRANCH  11  12
ATOM     12  N   ASP A   1     187.767 117.270  21.764  0.00  0.00    -0.238 NA
ATOM     13  H   ASP A   1     186.730 117.186  21.770  0.00  0.00    +0.142 HD
ENDBRANCH  11  12
BRANCH  11  14
ATOM     14  CB  ASP A   1     189.272 118.008  23.657  0.00  0.00    +0.140 C 
BRANCH  14  15
ATOM     15  CG  ASP A   1     188.366 119.082  24.191  0.00  0.00    +0.367 C 
ATOM     16  OD2 ASP A   1     187.411 118.744  24.908  0.00  0.00    -0.246 OA
ATOM     17  OD1 ASP A   1     188.635 120.271  23.916  0.00  0.00    -0.246 OA
ENDBRANCH  14  15
ENDBRANCH  11  14
ENDBRANCH   7  11
ENDBRANCH   6   8
BRANCH   6  18
ATOM     18  CB  VAL A   2     188.160 113.949  26.925  0.00  0.00    +0.027 C 
ATOM     19  CG2 VAL A   2     187.433 112.740  27.489  0.00  0.00    +0.002 C 
ATOM     20  CG1 VAL A   2     189.439 113.489  26.358  0.00  0.00    +0.002 C 
ENDBRANCH   6  18
ENDBRANCH   2   6
ENDBRANCH   1   4
BRANCH   1  21
ATOM     21  C   ARG A   3     183.741 117.286  26.369  0.00  0.00    +0.241 C 
ATOM     22  O   ARG A   3     182.661 117.184  26.944  0.00  0.00    -0.273 OA
ATOM     23  N   SER A   4     183.840 117.290  25.039  0.00  0.00    -0.296 N 
ATOM     24  H   SER A   4     184.782 117.347  24.603  0.00  0.00    +0.150 HD
BRANCH  23  25
ATOM     25  CA  SER A   4     182.655 117.216  24.172  0.00  0.00    +0.166 C 
BRANCH  25  26
ATOM     26  CB  SER A   4     181.884 115.910  24.333  0.00  0.00    +0.229 C 
ATOM     27  OG  SER A   4     180.665 115.878  24.227  0.00  0.00    -0.286 OA
ENDBRANCH  25  26
BRANCH  25  28
ATOM     28  C   SER A   4     183.063 117.397  22.719  0.00  0.00    +0.165 C 
BRANCH  28  29
ATOM     29  O   SER A   4     183.747 116.239  22.275  0.00  0.00    -0.380 OA
ATOM     30  H   SER A   4     184.013 116.357  21.329  0.00  0.00    +0.211 HD
ENDBRANCH  28  29
ENDBRANCH  25  28
ENDBRANCH  23  25
ENDBRANCH   1  21
BRANCH   1  31
ATOM     31  CB  ARG A   3     185.378 118.916  27.308  0.00  0.00    +0.033 C 
BRANCH  31  32
ATOM     32  CG  ARG A   3     186.567 119.296  28.178  0.00  0.00    +0.045 C 
BRANCH  32  33
ATOM     33  CD  ARG A   3     186.891 120.816  28.037  0.00  0.00    +0.174 C 
BRANCH  33  34
ATOM     34  NE  ARG A   3     187.320 121.192  26.678  0.00  0.00    -0.265 N 
ATOM     35  HE  ARG A   3     188.006 120.569  26.206  0.00  0.00    +0.259 HD
ATOM     36  CZ  ARG A   3     186.902 122.268  25.999  0.00  0.00    +0.342 C 
ATOM     37  NH2 ARG A   3     186.072 123.137  26.546  0.00  0.00    -0.292 N 
ATOM     38 HH21 ARG A   3     185.733 122.991  27.518  0.00  0.00    +0.255 HD
ATOM     39 HH22 ARG A   3     185.757 123.967  26.005  0.00  0.00    +0.255 HD
ATOM     40  NH1 ARG A   3     187.340 122.511  24.768  0.00  0.00    -0.292 N 
ATOM     41 HH11 ARG A   3     188.017 121.861  24.319  0.00  0.00    +0.255 HD
ATOM     42 HH12 ARG A   3     187.006 123.351  24.254  0.00  0.00    +0.255 HD
ENDBRANCH  33  34
ENDBRANCH  32  33
ENDBRANCH  31  32
ENDBRANCH   1  31
TORSDOF 17
REMARK  Name = ../refined-set-2016/1o1s/1o1s_pocket.pdb
REMARK  277 active torsions:
REMARK  status: ('A' for Active; 'I' for Inactive)
REMARK    1  A    between atoms: _1  and  _3
REMARK    2  A    between atoms: _3  and  _4
REMARK    3  A    between atoms: _7  and  _9
REMARK    4  A    between atoms: _9  and  _10
REMARK    5  A    between atoms: _9  and  _12
REMARK    6  A    between atoms: _12  and  _13
REMARK    7  A    between atoms: _18  and  _19
REMARK    8  A    between atoms: _21  and  _23
REMARK    9  A    between atoms: _23  and  _24
REMARK   10  A    between atoms: _23  and  _26
REMARK   11  A    between atoms: _26  and  _27
REMARK   12  A    between atoms: _27  and  _28
REMARK   13  A    between atoms: _28  and  _29
REMARK   14  A    between atoms: _29  and  _30
REMARK   15  A    between atoms: _34  and  _36
REMARK   16  A    between atoms: _36  and  _37
REMARK   17  A    between atoms: _36  and  _39
REMARK   18  A    between atoms: _39  and  _40
REMARK   19  A    between atoms: _45  and  _47
REMARK   20  A    between atoms: _47  and  _48
REMARK   21  A    between atoms: _47  and  _50
REMARK   22  A    between atoms: _50  and  _51
REMARK   23  A    between atoms: _56  and  _57
REMARK   24  A    between atoms: _59  and  _61
REMARK   25  A    between atoms: _61  and  _62
REMARK   26  A    between atoms: _61  and  _64
REMARK   27  A    between atoms: _64  and  _65
REMARK   28  A    between atoms: _65  and  _66
REMARK   29  A    between atoms: _71  and  _73
REMARK   30  A    between atoms: _73  and  _74
REMARK   31  A    between atoms: _73  and  _76
REMARK   32  A    between atoms: _76  and  _77
REMARK   33  A    between atoms: _80  and  _82
REMARK   34  A    between atoms: _82  and  _83
REMARK   35  A    between atoms: _82  and  _85
REMARK   36  A    between atoms: _85  and  _86
REMARK   37  A    between atoms: _86  and  _87
REMARK   38  A    between atoms: _87  and  _88
REMARK   39  A    between atoms: _88  and  _89
REMARK   40  A    between atoms: _93  and  _95
REMARK   41  A    between atoms: _95  and  _96
REMARK   42  A    between atoms: _95  and  _98
REMARK   43  A    between atoms: _98  and  _99
REMARK   44  A    between atoms: _104  and  _106
REMARK   45  A    between atoms: _106  and  _107
REMARK   46  A    between atoms: _106  and  _109
REMARK   47  A    between atoms: _109  and  _110
REMARK   48  A    between atoms: _115  and  _116
REMARK   49  A    between atoms: _118  and  _120
REMARK   50  A    between atoms: _120  and  _121
REMARK   51  A    between atoms: _120  and  _123
REMARK   52  A    between atoms: _123  and  _124
REMARK   53  A    between atoms: _129  and  _131
REMARK   54  A    between atoms: _131  and  _132
REMARK   55  A    between atoms: _135  and  _137
REMARK   56  A    between atoms: _137  and  _138
REMARK   57  A    between atoms: _137  and  _140
REMARK   58  A    between atoms: _140  and  _141
REMARK   59  A    between atoms: _141  and  _142
REMARK   60  A    between atoms: _147  and  _149
REMARK   61  A    between atoms: _149  and  _150
REMARK   62  A    between atoms: _149  and  _152
REMARK   63  A    between atoms: _152  and  _153
REMARK   64  A    between atoms: _155  and  _157
REMARK   65  A    between atoms: _157  and  _158
REMARK   66  A    between atoms: _157  and  _160
REMARK   67  A    between atoms: _160  and  _161
REMARK   68  A    between atoms: _164  and  _166
REMARK   69  A    between atoms: _166  and  _167
REMARK   70  A    between atoms: _170  and  _172
REMARK   71  A    between atoms: _172  and  _173
REMARK   72  A    between atoms: _172  and  _175
REMARK   73  A    between atoms: _175  and  _176
REMARK   74  A    between atoms: _178  and  _180
REMARK   75  A    between atoms: _180  and  _181
REMARK   76  A    between atoms: _180  and  _183
REMARK   77  A    between atoms: _183  and  _184
REMARK   78  A    between atoms: _194  and  _196
REMARK   79  A    between atoms: _196  and  _197
REMARK   80  A    between atoms: _196  and  _199
REMARK   81  A    between atoms: _199  and  _200
REMARK   82  A    between atoms: _210  and  _212
REMARK   83  A    between atoms: _212  and  _213
REMARK   84  A    between atoms: _212  and  _215
REMARK   85  A    between atoms: _215  and  _216
REMARK   86  A    between atoms: _221  and  _223
REMARK   87  A    between atoms: _223  and  _224
REMARK   88  A    between atoms: _223  and  _226
REMARK   89  A    between atoms: _226  and  _227
REMARK   90  A    between atoms: _230  and  _232
REMARK   91  A    between atoms: _232  and  _233
REMARK   92  A    between atoms: _237  and  _238
REMARK   93  A    between atoms: _243  and  _245
REMARK   94  A    between atoms: _245  and  _246
REMARK   95  A    between atoms: _245  and  _248
REMARK   96  A    between atoms: _248  and  _249
REMARK   97  A    between atoms: _252  and  _254
REMARK   98  A    between atoms: _254  and  _255
REMARK   99  A    between atoms: _254  and  _257
REMARK  100  A    between atoms: _257  and  _258
REMARK  101  A    between atoms: _263  and  _264
REMARK  102  A    between atoms: _266  and  _268
REMARK  103  A    between atoms: _268  and  _269
REMARK  104  A    between atoms: _272  and  _274
REMARK  105  A    between atoms: _274  and  _275
REMARK  106  A    between atoms: _274  and  _277
REMARK  107  A    between atoms: _277  and  _278
REMARK  108  A    between atoms: _278  and  _279
REMARK  109  A    between atoms: _281  and  _283
REMARK  110  A    between atoms: _283  and  _284
REMARK  111  A    between atoms: _283  and  _286
REMARK  112  A    between atoms: _286  and  _287
REMARK  113  A    between atoms: _292  and  _294
REMARK  114  A    between atoms: _294  and  _295
REMARK  115  A    between atoms: _294  and  _297
REMARK  116  A    between atoms: _297  and  _298
REMARK  117  A    between atoms: _298  and  _299
REMARK  118  A    between atoms: _302  and  _304
REMARK  119  A    between atoms: _304  and  _305
REMARK  120  A    between atoms: _304  and  _307
REMARK  121  A    between atoms: _307  and  _308
REMARK  122  A    between atoms: _311  and  _313
REMARK  123  A    between atoms: _313  and  _314
REMARK  124  A    between atoms: _313  and  _316
REMARK  125  A    between atoms: _319  and  _321
REMARK  126  A    between atoms: _321  and  _322
REMARK  127  A    between atoms: _321  and  _324
REMARK  128  A    between atoms: _324  and  _325
REMARK  129  A    between atoms: _325  and  _326
REMARK  130  A    between atoms: _326  and  _327
REMARK  131  A    between atoms: _336  and  _338
REMARK  132  A    between atoms: _338  and  _339
REMARK  133  A    between atoms: _338  and  _341
REMARK  134  A    between atoms: _341  and  _342
REMARK  135  A    between atoms: _344  and  _346
REMARK  136  A    between atoms: _346  and  _347
REMARK  137  A    between atoms: _346  and  _349
REMARK  138  A    between atoms: _349  and  _350
REMARK  139  A    between atoms: _355  and  _356
REMARK  140  A    between atoms: _358  and  _360
REMARK  141  A    between atoms: _360  and  _361
REMARK  142  A    between atoms: _360  and  _363
REMARK  143  A    between atoms: _365  and  _367
REMARK  144  A    between atoms: _367  and  _368
REMARK  145  A    between atoms: _370  and  _372
REMARK  146  A    between atoms: _372  and  _373
REMARK  147  A    between atoms: _372  and  _375
REMARK  148  A    between atoms: _375  and  _376
REMARK  149  A    between atoms: _376  and  _377
REMARK  150  A    between atoms: _379  and  _381
REMARK  151  A    between atoms: _381  and  _382
REMARK  152  A    between atoms: _381  and  _384
REMARK  153  A    between atoms: _384  and  _385
REMARK  154  A    between atoms: _385  and  _386
REMARK  155  A    between atoms: _389  and  _391
REMARK  156  A    between atoms: _391  and  _392
REMARK  157  A    between atoms: _395  and  _397
REMARK  158  A    between atoms: _397  and  _398
REMARK  159  A    between atoms: _397  and  _400
REMARK  160  A    between atoms: _400  and  _401
REMARK  161  A    between atoms: _406  and  _408
REMARK  162  A    between atoms: _408  and  _409
REMARK  163  A    between atoms: _411  and  _413
REMARK  164  A    between atoms: _413  and  _414
REMARK  165  A    between atoms: _416  and  _418
REMARK  166  A    between atoms: _418  and  _419
REMARK  167  A    between atoms: _418  and  _421
REMARK  168  A    between atoms: _421  and  _422
REMARK  169  A    between atoms: _427  and  _428
REMARK  170  A    between atoms: _430  and  _432
REMARK  171  A    between atoms: _432  and  _433
REMARK  172  A    between atoms: _432  and  _435
REMARK  173  A    between atoms: _435  and  _436
REMARK  174  A    between atoms: _439  and  _441
REMARK  175  A    between atoms: _441  and  _442
REMARK  176  A    between atoms: _441  and  _444
REMARK  177  A    between atoms: _444  and  _445
REMARK  178  A    between atoms: _451  and  _453
REMARK  179  A    between atoms: _453  and  _454
REMARK  180  A    between atoms: _453  and  _456
REMARK  181  A    between atoms: _458  and  _460
REMARK  182  A    between atoms: _460  and  _461
REMARK  183  A    between atoms: _463  and  _465
REMARK  184  A    between atoms: _465  and  _466
REMARK  185  A    between atoms: _465  and  _468
REMARK  186  A    between atoms: _468  and  _469
REMARK  187  A    between atoms: _475  and  _477
REMARK  188  A    between atoms: _477  and  _478
REMARK  189  A    between atoms: _477  and  _480
REMARK  190  A    between atoms: _480  and  _481
REMARK  191  A    between atoms: _481  and  _482
REMARK  192  A    between atoms: _487  and  _489
REMARK  193  A    between atoms: _489  and  _490
REMARK  194  A    between atoms: _492  and  _494
REMARK  195  A    between atoms: _494  and  _495
REMARK  196  A    between atoms: _494  and  _497
REMARK  197  A    between atoms: _497  and  _498
REMARK  198  A    between atoms: _498  and  _499
REMARK  199  A    between atoms: _499  and  _500
REMARK  200  A    between atoms: _509  and  _511
REMARK  201  A    between atoms: _511  and  _512
REMARK  202  A    between atoms: _511  and  _514
REMARK  203  A    between atoms: _516  and  _518
REMARK  204  A    between atoms: _518  and  _519
REMARK  205  A    between atoms: _518  and  _521
REMARK  206  A    between atoms: _521  and  _522
REMARK  207  A    between atoms: _527  and  _529
REMARK  208  A    between atoms: _529  and  _530
REMARK  209  A    between atoms: _529  and  _532
REMARK  210  A    between atoms: _532  and  _533
REMARK  211  A    between atoms: _533  and  _534
REMARK  212  A    between atoms: _534  and  _535
REMARK  213  A    between atoms: _535  and  _536
REMARK  214  A    between atoms: _540  and  _542
REMARK  215  A    between atoms: _542  and  _543
REMARK  216  A    between atoms: _542  and  _545
REMARK  217  A    between atoms: _545  and  _546
REMARK  218  A    between atoms: _549  and  _551
REMARK  219  A    between atoms: _551  and  _552
REMARK  220  A    between atoms: _551  and  _554
REMARK  221  A    between atoms: _557  and  _559
REMARK  222  A    between atoms: _559  and  _560
REMARK  223  A    between atoms: _559  and  _562
REMARK  224  A    between atoms: _562  and  _563
REMARK  225  A    between atoms: _563  and  _565
REMARK  226  A    between atoms: _565  and  ZN_690
REMARK  227  A    between atoms: _566  and  _568
REMARK  228  A    between atoms: _568  and  _569
REMARK  229  A    between atoms: _568  and  _571
REMARK  230  A    between atoms: _571  and  _572
REMARK  231  A    between atoms: _572  and  ZN_690
REMARK  232  A    between atoms: _573  and  _575
REMARK  233  A    between atoms: _575  and  _576
REMARK  234  A    between atoms: _575  and  _578
REMARK  235  A    between atoms: _578  and  _579
REMARK  236  A    between atoms: _584  and  _585
REMARK  237  A    between atoms: _587  and  _589
REMARK  238  A    between atoms: _589  and  _590
REMARK  239  A    between atoms: _589  and  _592
REMARK  240  A    between atoms: _592  and  _593
REMARK  241  A    between atoms: _599  and  _601
REMARK  242  A    between atoms: _601  and  _602
REMARK  243  A    between atoms: _601  and  _604
REMARK  244  A    between atoms: _604  and  _605
REMARK  245  A    between atoms: _615  and  _617
REMARK  246  A    between atoms: _617  and  _618
REMARK  247  A    between atoms: _617  and  _620
REMARK  248  A    between atoms: _620  and  _621
REMARK  249  A    between atoms: _621  and  _622
REMARK  250  A    between atoms: _627  and  _629
REMARK  251  A    between atoms: _629  and  _630
REMARK  252  A    between atoms: _629  and  _632
REMARK  253  A    between atoms: _632  and  _633
REMARK  254  A    between atoms: _636  and  _638
REMARK  255  A    between atoms: _638  and  _639
REMARK  256  A    between atoms: _638  and  _641
REMARK  257  A    between atoms: _641  and  _642
REMARK  258  A    between atoms: _642  and  _643
REMARK  259  A    between atoms: _643  and  _644
REMARK  260  A    between atoms: _644  and  _645
REMARK  261  A    between atoms: _649  and  _651
REMARK  262  A    between atoms: _651  and  _652
REMARK  263  A    between atoms: _651  and  _654
REMARK  264  A    between atoms: _654  and  _655
REMARK  265  A    between atoms: _655  and  _656
REMARK  266  A    between atoms: _656  and  _657
REMARK  267  A    between atoms: _657  and  _658
REMARK  268  A    between atoms: _662  and  _664
REMARK  269  A    between atoms: _664  and  _665
REMARK  270  A    between atoms: _664  and  _667
REMARK  271  A    between atoms: _667  and  _668
REMARK  272  A    between atoms: _673  and  _674
REMARK  273  A    between atoms: _676  and  _678
REMARK  274  A    between atoms: _678  and  _679
REMARK  275  A    between atoms: _678  and  _681
REMARK  276  A    between atoms: _681  and  _682
REMARK  277  A    between atoms: _687  and  _688
REMARK                            x       y       z     vdW  Elec       q    Type
REMARK                         _______ _______ _______ _____ _____    ______ ____
ROOT
ATOM      1  CA  TYR A   1     181.142 114.217  28.413  0.00  0.00    +0.149 C 
ENDROOT
BRANCH   1   2
ATOM      2  C   TYR A   1     179.923 115.145  28.370  0.00  0.00    +0.239 C 
ATOM      3  O   TYR A   1     178.899 114.845  28.977  0.00  0.00    -0.274 OA
ATOM      4  N   CYS A   2     180.031 116.272  27.668  0.00  0.00    -0.297 N 
ATOM      5  H   CYS A   2     180.928 116.495  27.192  0.00  0.00    +0.150 HD
BRANCH   4   6
ATOM      6  CA  CYS A   2     178.904 117.202  27.557  0.00  0.00    +0.149 C 
BRANCH   6   7
ATOM      7  C   CYS A   2     177.751 116.500  26.867  0.00  0.00    +0.228 C 
ATOM      8  O   CYS A   2     176.600 116.683  27.243  0.00  0.00    -0.286 OA
ENDBRANCH   6   7
BRANCH   6   9
ATOM      9  CB  CYS A   2     179.286 118.442  26.743  0.00  0.00    +0.096 C 
ATOM     10  SG  CYS A   2     180.448 119.551  27.567  0.00  0.00    -0.080 S 
ENDBRANCH   6   9
ENDBRANCH   4   6
ENDBRANCH   1   2
BRANCH   1  11
ATOM     11  N   TYR A   1     181.797 114.128  27.107  0.00  0.00    -0.238 NA
ATOM     12  H   TYR A   1     182.740 114.551  26.986  0.00  0.00    +0.142 HD
ENDBRANCH   1  11
BRANCH   1  13
ATOM     13  CB  TYR A   1     182.127 114.679  29.498  0.00  0.00    +0.053 C 
BRANCH  13  14
ATOM     14  CG  TYR A   1     181.456 115.113  30.788  0.00  0.00    -0.020 A 
ATOM     15  CD2 TYR A   1     180.847 114.177  31.631  0.00  0.00    -0.001 A 
ATOM     16  CE2 TYR A   1     180.245 114.567  32.838  0.00  0.00    +0.036 A 
ATOM     17  CZ  TYR A   1     180.249 115.907  33.207  0.00  0.00    +0.134 A 
ATOM     18  CE1 TYR A   1     180.846 116.859  32.380  0.00  0.00    +0.036 A 
ATOM     19  CD1 TYR A   1     181.446 116.456  31.174  0.00  0.00    -0.001 A 
BRANCH  17  20
ATOM     20  OH  TYR A   1     179.669 116.292  34.394  0.00  0.00    -0.506 OA
ATOM     21  HH  TYR A   1     179.296 115.497  34.851  0.00  0.00    +0.292 HD
ENDBRANCH  17  20
ENDBRANCH  13  14
ENDBRANCH   1  13
TORSDOF 8
REMARK  Name = ../refined-set-2016/1o1s/1o1s_pocket.pdb
REMARK  277 active torsions:
REMARK  status: ('A' for Active; 'I' for Inactive)
REMARK    1  A    between atoms: _1  and  _3
REMARK    2  A    between atoms: _3  and  _4
REMARK    3  A    between atoms: _7  and  _9
REMARK    4  A    between atoms: _9  and  _10
REMARK    5  A    between atoms: _9  and  _12
REMARK    6  A    between atoms: _12  and  _13
REMARK    7  A    between atoms: _18  and  _19
REMARK    8  A    between atoms: _21  and  _23
REMARK    9  A    between atoms: _23  and  _24
REMARK   10  A    between atoms: _23  and  _26
REMARK   11  A    between atoms: _26  and  _27
REMARK   12  A    between atoms: _27  and  _28
REMARK   13  A    between atoms: _28  and  _29
REMARK   14  A    between atoms: _29  and  _30
REMARK   15  A    between atoms: _34  and  _36
REMARK   16  A    between atoms: _36  and  _37
REMARK   17  A    between atoms: _36  and  _39
REMARK   18  A    between atoms: _39  and  _40
REMARK   19  A    between atoms: _45  and  _47
REMARK   20  A    between atoms: _47  and  _48
REMARK   21  A    between atoms: _47  and  _50
REMARK   22  A    between atoms: _50  and  _51
REMARK   23  A    between atoms: _56  and  _57
REMARK   24  A    between atoms: _59  and  _61
REMARK   25  A    between atoms: _61  and  _62
REMARK   26  A    between atoms: _61  and  _64
REMARK   27  A    between atoms: _64  and  _65
REMARK   28  A    between atoms: _65  and  _66
REMARK   29  A    between atoms: _71  and  _73
REMARK   30  A    between atoms: _73  and  _74
REMARK   31  A    between atoms: _73  and  _76
REMARK   32  A    between atoms: _76  and  _77
REMARK   33  A    between atoms: _80  and  _82
REMARK   34  A    between atoms: _82  and  _83
REMARK   35  A    between atoms: _82  and  _85
REMARK   36  A    between atoms: _85  and  _86
REMARK   37  A    between atoms: _86  and  _87
REMARK   38  A    between atoms: _87  and  _88
REMARK   39  A    between atoms: _88  and  _89
REMARK   40  A    between atoms: _93  and  _95
REMARK   41  A    between atoms: _95  and  _96
REMARK   42  A    between atoms: _95  and  _98
REMARK   43  A    between atoms: _98  and  _99
REMARK   44  A    between atoms: _104  and  _106
REMARK   45  A    between atoms: _106  and  _107
REMARK   46  A    between atoms: _106  and  _109
REMARK   47  A    between atoms: _109  and  _110
REMARK   48  A    between atoms: _115  and  _116
REMARK   49  A    between atoms: _118  and  _120
REMARK   50  A    between atoms: _120  and  _121
REMARK   51  A    between atoms: _120  and  _123
REMARK   52  A    between atoms: _123  and  _124
REMARK   53  A    between atoms: _129  and  _131
REMARK   54  A    between atoms: _131  and  _132
REMARK   55  A    between atoms: _135  and  _137
REMARK   56  A    between atoms: _137  and  _138
REMARK   57  A    between atoms: _137  and  _140
REMARK   58  A    between atoms: _140  and  _141
REMARK   59  A    between atoms: _141  and  _142
REMARK   60  A    between atoms: _147  and  _149
REMARK   61  A    between atoms: _149  and  _150
REMARK   62  A    between atoms: _149  and  _152
REMARK   63  A    between atoms: _152  and  _153
REMARK   64  A    between atoms: _155  and  _157
REMARK   65  A    between atoms: _157  and  _158
REMARK   66  A    between atoms: _157  and  _160
REMARK   67  A    between atoms: _160  and  _161
REMARK   68  A    between atoms: _164  and  _166
REMARK   69  A    between atoms: _166  and  _167
REMARK   70  A    between atoms: _170  and  _172
REMARK   71  A    between atoms: _172  and  _173
REMARK   72  A    between atoms: _172  and  _175
REMARK   73  A    between atoms: _175  and  _176
REMARK   74  A    between atoms: _178  and  _180
REMARK   75  A    between atoms: _180  and  _181
REMARK   76  A    between atoms: _180  and  _183
REMARK   77  A    between atoms: _183  and  _184
REMARK   78  A    between atoms: _194  and  _196
REMARK   79  A    between atoms: _196  and  _197
REMARK   80  A    between atoms: _196  and  _199
REMARK   81  A    between atoms: _199  and  _200
REMARK   82  A    between atoms: _210  and  _212
REMARK   83  A    between atoms: _212  and  _213
REMARK   84  A    between atoms: _212  and  _215
REMARK   85  A    between atoms: _215  and  _216
REMARK   86  A    between atoms: _221  and  _223
REMARK   87  A    between atoms: _223  and  _224
REMARK   88  A    between atoms: _223  and  _226
REMARK   89  A    between atoms: _226  and  _227
REMARK   90  A    between atoms: _230  and  _232
REMARK   91  A    between atoms: _232  and  _233
REMARK   92  A    between atoms: _237  and  _238
REMARK   93  A    between atoms: _243  and  _245
REMARK   94  A    between atoms: _245  and  _246
REMARK   95  A    between atoms: _245  and  _248
REMARK   96  A    between atoms: _248  and  _249
REMARK   97  A    between atoms: _252  and  _254
REMARK   98  A    between atoms: _254  and  _255
REMARK   99  A    between atoms: _254  and  _257
REMARK  100  A    between atoms: _257  and  _258
REMARK  101  A    between atoms: _263  and  _264
REMARK  102  A    between atoms: _266  and  _268
REMARK  103  A    between atoms: _268  and  _269
REMARK  104  A    between atoms: _272  and  _274
REMARK  105  A    between atoms: _274  and  _275
REMARK  106  A    between atoms: _274  and  _277
REMARK  107  A    between atoms: _277  and  _278
REMARK  108  A    between atoms: _278  and  _279
REMARK  109  A    between atoms: _281  and  _283
REMARK  110  A    between atoms: _283  and  _284
REMARK  111  A    between atoms: _283  and  _286
REMARK  112  A    between atoms: _286  and  _287
REMARK  113  A    between atoms: _292  and  _294
REMARK  114  A    between atoms: _294  and  _295
REMARK  115  A    between atoms: _294  and  _297
REMARK  116  A    between atoms: _297  and  _298
REMARK  117  A    between atoms: _298  and  _299
REMARK  118  A    between atoms: _302  and  _304
REMARK  119  A    between atoms: _304  and  _305
REMARK  120  A    between atoms: _304  and  _307
REMARK  121  A    between atoms: _307  and  _308
REMARK  122  A    between atoms: _311  and  _313
REMARK  123  A    between atoms: _313  and  _314
REMARK  124  A    between atoms: _313  and  _316
REMARK  125  A    between atoms: _319  and  _321
REMARK  126  A    between atoms: _321  and  _322
REMARK  127  A    between atoms: _321  and  _324
REMARK  128  A    between atoms: _324  and  _325
REMARK  129  A    between atoms: _325  and  _326
REMARK  130  A    between atoms: _326  and  _327
REMARK  131  A    between atoms: _336  and  _338
REMARK  132  A    between atoms: _338  and  _339
REMARK  133  A    between atoms: _338  and  _341
REMARK  134  A    between atoms: _341  and  _342
REMARK  135  A    between atoms: _344  and  _346
REMARK  136  A    between atoms: _346  and  _347
REMARK  137  A    between atoms: _346  and  _349
REMARK  138  A    between atoms: _349  and  _350
REMARK  139  A    between atoms: _355  and  _356
REMARK  140  A    between atoms: _358  and  _360
REMARK  141  A    between atoms: _360  and  _361
REMARK  142  A    between atoms: _360  and  _363
REMARK  143  A    between atoms: _365  and  _367
REMARK  144  A    between atoms: _367  and  _368
REMARK  145  A    between atoms: _370  and  _372
REMARK  146  A    between atoms: _372  and  _373
REMARK  147  A    between atoms: _372  and  _375
REMARK  148  A    between atoms: _375  and  _376
REMARK  149  A    between atoms: _376  and  _377
REMARK  150  A    between atoms: _379  and  _381
REMARK  151  A    between atoms: _381  and  _382
REMARK  152  A    between atoms: _381  and  _384
REMARK  153  A    between atoms: _384  and  _385
REMARK  154  A    between atoms: _385  and  _386
REMARK  155  A    between atoms: _389  and  _391
REMARK  156  A    between atoms: _391  and  _392
REMARK  157  A    between atoms: _395  and  _397
REMARK  158  A    between atoms: _397  and  _398
REMARK  159  A    between atoms: _397  and  _400
REMARK  160  A    between atoms: _400  and  _401
REMARK  161  A    between atoms: _406  and  _408
REMARK  162  A    between atoms: _408  and  _409
REMARK  163  A    between atoms: _411  and  _413
REMARK  164  A    between atoms: _413  and  _414
REMARK  165  A    between atoms: _416  and  _418
REMARK  166  A    between atoms: _418  and  _419
REMARK  167  A    between atoms: _418  and  _421
REMARK  168  A    between atoms: _421  and  _422
REMARK  169  A    between atoms: _427  and  _428
REMARK  170  A    between atoms: _430  and  _432
REMARK  171  A    between atoms: _432  and  _433
REMARK  172  A    between atoms: _432  and  _435
REMARK  173  A    between atoms: _435  and  _436
REMARK  174  A    between atoms: _439  and  _441
REMARK  175  A    between atoms: _441  and  _442
REMARK  176  A    between atoms: _441  and  _444
REMARK  177  A    between atoms: _444  and  _445
REMARK  178  A    between atoms: _451  and  _453
REMARK  179  A    between atoms: _453  and  _454
REMARK  180  A    between atoms: _453  and  _456
REMARK  181  A    between atoms: _458  and  _460
REMARK  182  A    between atoms: _460  and  _461
REMARK  183  A    between atoms: _463  and  _465
REMARK  184  A    between atoms: _465  and  _466
REMARK  185  A    between atoms: _465  and  _468
REMARK  186  A    between atoms: _468  and  _469
REMARK  187  A    between atoms: _475  and  _477
REMARK  188  A    between atoms: _477  and  _478
REMARK  189  A    between atoms: _477  and  _480
REMARK  190  A    between atoms: _480  and  _481
REMARK  191  A    between atoms: _481  and  _482
REMARK  192  A    between atoms: _487  and  _489
REMARK  193  A    between atoms: _489  and  _490
REMARK  194  A    between atoms: _492  and  _494
REMARK  195  A    between atoms: _494  and  _495
REMARK  196  A    between atoms: _494  and  _497
REMARK  197  A    between atoms: _497  and  _498
REMARK  198  A    between atoms: _498  and  _499
REMARK  199  A    between atoms: _499  and  _500
REMARK  200  A    between atoms: _509  and  _511
REMARK  201  A    between atoms: _511  and  _512
REMARK  202  A    between atoms: _511  and  _514
REMARK  203  A    between atoms: _516  and  _518
REMARK  204  A    between atoms: _518  and  _519
REMARK  205  A    between atoms: _518  and  _521
REMARK  206  A    between atoms: _521  and  _522
REMARK  207  A    between atoms: _527  and  _529
REMARK  208  A    between atoms: _529  and  _530
REMARK  209  A    between atoms: _529  and  _532
REMARK  210  A    between atoms: _532  and  _533
REMARK  211  A    between atoms: _533  and  _534
REMARK  212  A    between atoms: _534  and  _535
REMARK  213  A    between atoms: _535  and  _536
REMARK  214  A    between atoms: _540  and  _542
REMARK  215  A    between atoms: _542  and  _543
REMARK  216  A    between atoms: _542  and  _545
REMARK  217  A    between atoms: _545  and  _546
REMARK  218  A    between atoms: _549  and  _551
REMARK  219  A    between atoms: _551  and  _552
REMARK  220  A    between atoms: _551  and  _554
REMARK  221  A    between atoms: _557  and  _559
REMARK  222  A    between atoms: _559  and  _560
REMARK  223  A    between atoms: _559  and  _562
REMARK  224  A    between atoms: _562  and  _563
REMARK  225  A    between atoms: _563  and  _565
REMARK  226  A    between atoms: _565  and  ZN_690
REMARK  227  A    between atoms: _566  and  _568
REMARK  228  A    between atoms: _568  and  _569
REMARK  229  A    between atoms: _568  and  _571
REMARK  230  A    between atoms: _571  and  _572
REMARK  231  A    between atoms: _572  and  ZN_690
REMARK  232  A    between atoms: _573  and  _575
REMARK  233  A    between atoms: _575  and  _576
REMARK  234  A    between atoms: _575  and  _578
REMARK  235  A    between atoms: _578  and  _579
REMARK  236  A    between atoms: _584  and  _585
REMARK  237  A    between atoms: _587  and  _589
REMARK  238  A    between atoms: _589  and  _590
REMARK  239  A    between atoms: _589  and  _592
REMARK  240  A    between atoms: _592  and  _593
REMARK  241  A    between atoms: _599  and  _601
REMARK  242  A    between atoms: _601  and  _602
REMARK  243  A    between atoms: _601  and  _604
REMARK  244  A    between atoms: _604  and  _605
REMARK  245  A    between atoms: _615  and  _617
REMARK  246  A    between atoms: _617  and  _618
REMARK  247  A    between atoms: _617  and  _620
REMARK  248  A    between atoms: _620  and  _621
REMARK  249  A    between atoms: _621  and  _622
REMARK  250  A    between atoms: _627  and  _629
REMARK  251  A    between atoms: _629  and  _630
REMARK  252  A    between atoms: _629  and  _632
REMARK  253  A    between atoms: _632  and  _633
REMARK  254  A    between atoms: _636  and  _638
REMARK  255  A    between atoms: _638  and  _639
REMARK  256  A    between atoms: _638  and  _641
REMARK  257  A    between atoms: _641  and  _642
REMARK  258  A    between atoms: _642  and  _643
REMARK  259  A    between atoms: _643  and  _644
REMARK  260  A    between atoms: _644  and  _645
REMARK  261  A    between atoms: _649  and  _651
REMARK  262  A    between atoms: _651  and  _652
REMARK  263  A    between atoms: _651  and  _654
REMARK  264  A    between atoms: _654  and  _655
REMARK  265  A    between atoms: _655  and  _656
REMARK  266  A    between atoms: _656  and  _657
REMARK  267  A    between atoms: _657  and  _658
REMARK  268  A    between atoms: _662  and  _664
REMARK  269  A    between atoms: _664  and  _665
REMARK  270  A    between atoms: _664  and  _667
REMARK  271  A    between atoms: _667  and  _668
REMARK  272  A    between atoms: _673  and  _674
REMARK  273  A    between atoms: _676  and  _678
REMARK  274  A    between atoms: _678  and  _679
REMARK  275  A    between atoms: _678  and  _681
REMARK  276  A    between atoms: _681  and  _682
REMARK  277  A    between atoms: _687  and  _688
REMARK                            x       y       z     vdW  Elec       q    Type
REMARK                         _______ _______ _______ _____ _____    ______ ____
ROOT
ATOM      1  CA  GLY A   1     192.300 116.252  25.945  0.00  0.00    +0.156 C 
ENDROOT
BRANCH   1   2
ATOM      2  N   GLY A   1     193.386 115.722  26.762  0.00  0.00    -0.238 NA
ATOM      3  H   GLY A   1     194.206 116.324  26.976  0.00  0.00    +0.142 HD
ENDBRANCH   1   2
BRANCH   1   4
ATOM      4  C   GLY A   1     191.979 115.473  24.688  0.00  0.00    +0.226 C 
ATOM      5  O   GLY A   1     190.821 115.343  24.298  0.00  0.00    -0.287 OA
ENDBRANCH   1   4
TORSDOF 2
REMARK  Name = ../refined-set-2016/1o1s/1o1s_pocket.pdb
REMARK  277 active torsions:
REMARK  status: ('A' for Active; 'I' for Inactive)
REMARK    1  A    between atoms: _1  and  _3
REMARK    2  A    between atoms: _3  and  _4
REMARK    3  A    between atoms: _7  and  _9
REMARK    4  A    between atoms: _9  and  _10
REMARK    5  A    between atoms: _9  and  _12
REMARK    6  A    between atoms: _12  and  _13
REMARK    7  A    between atoms: _18  and  _19
REMARK    8  A    between atoms: _21  and  _23
REMARK    9  A    between atoms: _23  and  _24
REMARK   10  A    between atoms: _23  and  _26
REMARK   11  A    between atoms: _26  and  _27
REMARK   12  A    between atoms: _27  and  _28
REMARK   13  A    between atoms: _28  and  _29
REMARK   14  A    between atoms: _29  and  _30
REMARK   15  A    between atoms: _34  and  _36
REMARK   16  A    between atoms: _36  and  _37
REMARK   17  A    between atoms: _36  and  _39
REMARK   18  A    between atoms: _39  and  _40
REMARK   19  A    between atoms: _45  and  _47
REMARK   20  A    between atoms: _47  and  _48
REMARK   21  A    between atoms: _47  and  _50
REMARK   22  A    between atoms: _50  and  _51
REMARK   23  A    between atoms: _56  and  _57
REMARK   24  A    between atoms: _59  and  _61
REMARK   25  A    between atoms: _61  and  _62
REMARK   26  A    between atoms: _61  and  _64
REMARK   27  A    between atoms: _64  and  _65
REMARK   28  A    between atoms: _65  and  _66
REMARK   29  A    between atoms: _71  and  _73
REMARK   30  A    between atoms: _73  and  _74
REMARK   31  A    between atoms: _73  and  _76
REMARK   32  A    between atoms: _76  and  _77
REMARK   33  A    between atoms: _80  and  _82
REMARK   34  A    between atoms: _82  and  _83
REMARK   35  A    between atoms: _82  and  _85
REMARK   36  A    between atoms: _85  and  _86
REMARK   37  A    between atoms: _86  and  _87
REMARK   38  A    between atoms: _87  and  _88
REMARK   39  A    between atoms: _88  and  _89
REMARK   40  A    between atoms: _93  and  _95
REMARK   41  A    between atoms: _95  and  _96
REMARK   42  A    between atoms: _95  and  _98
REMARK   43  A    between atoms: _98  and  _99
REMARK   44  A    between atoms: _104  and  _106
REMARK   45  A    between atoms: _106  and  _107
REMARK   46  A    between atoms: _106  and  _109
REMARK   47  A    between atoms: _109  and  _110
REMARK   48  A    between atoms: _115  and  _116
REMARK   49  A    between atoms: _118  and  _120
REMARK   50  A    between atoms: _120  and  _121
REMARK   51  A    between atoms: _120  and  _123
REMARK   52  A    between atoms: _123  and  _124
REMARK   53  A    between atoms: _129  and  _131
REMARK   54  A    between atoms: _131  and  _132
REMARK   55  A    between atoms: _135  and  _137
REMARK   56  A    between atoms: _137  and  _138
REMARK   57  A    between atoms: _137  and  _140
REMARK   58  A    between atoms: _140  and  _141
REMARK   59  A    between atoms: _141  and  _142
REMARK   60  A    between atoms: _147  and  _149
REMARK   61  A    between atoms: _149  and  _150
REMARK   62  A    between atoms: _149  and  _152
REMARK   63  A    between atoms: _152  and  _153
REMARK   64  A    between atoms: _155  and  _157
REMARK   65  A    between atoms: _157  and  _158
REMARK   66  A    between atoms: _157  and  _160
REMARK   67  A    between atoms: _160  and  _161
REMARK   68  A    between atoms: _164  and  _166
REMARK   69  A    between atoms: _166  and  _167
REMARK   70  A    between atoms: _170  and  _172
REMARK   71  A    between atoms: _172  and  _173
REMARK   72  A    between atoms: _172  and  _175
REMARK   73  A    between atoms: _175  and  _176
REMARK   74  A    between atoms: _178  and  _180
REMARK   75  A    between atoms: _180  and  _181
REMARK   76  A    between atoms: _180  and  _183
REMARK   77  A    between atoms: _183  and  _184
REMARK   78  A    between atoms: _194  and  _196
REMARK   79  A    between atoms: _196  and  _197
REMARK   80  A    between atoms: _196  and  _199
REMARK   81  A    between atoms: _199  and  _200
REMARK   82  A    between atoms: _210  and  _212
REMARK   83  A    between atoms: _212  and  _213
REMARK   84  A    between atoms: _212  and  _215
REMARK   85  A    between atoms: _215  and  _216
REMARK   86  A    between atoms: _221  and  _223
REMARK   87  A    between atoms: _223  and  _224
REMARK   88  A    between atoms: _223  and  _226
REMARK   89  A    between atoms: _226  and  _227
REMARK   90  A    between atoms: _230  and  _232
REMARK   91  A    between atoms: _232  and  _233
REMARK   92  A    between atoms: _237  and  _238
REMARK   93  A    between atoms: _243  and  _245
REMARK   94  A    between atoms: _245  and  _246
REMARK   95  A    between atoms: _245  and  _248
REMARK   96  A    between atoms: _248  and  _249
REMARK   97  A    between atoms: _252  and  _254
REMARK   98  A    between atoms: _254  and  _255
REMARK   99  A    between atoms: _254  and  _257
REMARK  100  A    between atoms: _257  and  _258
REMARK  101  A    between atoms: _263  and  _264
REMARK  102  A    between atoms: _266  and  _268
REMARK  103  A    between atoms: _268  and  _269
REMARK  104  A    between atoms: _272  and  _274
REMARK  105  A    between atoms: _274  and  _275
REMARK  106  A    between atoms: _274  and  _277
REMARK  107  A    between atoms: _277  and  _278
REMARK  108  A    between atoms: _278  and  _279
REMARK  109  A    between atoms: _281  and  _283
REMARK  110  A    between atoms: _283  and  _284
REMARK  111  A    between atoms: _283  and  _286
REMARK  112  A    between atoms: _286  and  _287
REMARK  113  A    between atoms: _292  and  _294
REMARK  114  A    between atoms: _294  and  _295
REMARK  115  A    between atoms: _294  and  _297
REMARK  116  A    between atoms: _297  and  _298
REMARK  117  A    between atoms: _298  and  _299
REMARK  118  A    between atoms: _302  and  _304
REMARK  119  A    between atoms: _304  and  _305
REMARK  120  A    between atoms: _304  and  _307
REMARK  121  A    between atoms: _307  and  _308
REMARK  122  A    between atoms: _311  and  _313
REMARK  123  A    between atoms: _313  and  _314
REMARK  124  A    between atoms: _313  and  _316
REMARK  125  A    between atoms: _319  and  _321
REMARK  126  A    between atoms: _321  and  _322
REMARK  127  A    between atoms: _321  and  _324
REMARK  128  A    between atoms: _324  and  _325
REMARK  129  A    between atoms: _325  and  _326
REMARK  130  A    between atoms: _326  and  _327
REMARK  131  A    between atoms: _336  and  _338
REMARK  132  A    between atoms: _338  and  _339
REMARK  133  A    between atoms: _338  and  _341
REMARK  134  A    between atoms: _341  and  _342
REMARK  135  A    between atoms: _344  and  _346
REMARK  136  A    between atoms: _346  and  _347
REMARK  137  A    between atoms: _346  and  _349
REMARK  138  A    between atoms: _349  and  _350
REMARK  139  A    between atoms: _355  and  _356
REMARK  140  A    between atoms: _358  and  _360
REMARK  141  A    between atoms: _360  and  _361
REMARK  142  A    between atoms: _360  and  _363
REMARK  143  A    between atoms: _365  and  _367
REMARK  144  A    between atoms: _367  and  _368
REMARK  145  A    between atoms: _370  and  _372
REMARK  146  A    between atoms: _372  and  _373
REMARK  147  A    between atoms: _372  and  _375
REMARK  148  A    between atoms: _375  and  _376
REMARK  149  A    between atoms: _376  and  _377
REMARK  150  A    between atoms: _379  and  _381
REMARK  151  A    between atoms: _381  and  _382
REMARK  152  A    between atoms: _381  and  _384
REMARK  153  A    between atoms: _384  and  _385
REMARK  154  A    between atoms: _385  and  _386
REMARK  155  A    between atoms: _389  and  _391
REMARK  156  A    between atoms: _391  and  _392
REMARK  157  A    between atoms: _395  and  _397
REMARK  158  A    between atoms: _397  and  _398
REMARK  159  A    between atoms: _397  and  _400
REMARK  160  A    between atoms: _400  and  _401
REMARK  161  A    between atoms: _406  and  _408
REMARK  162  A    between atoms: _408  and  _409
REMARK  163  A    between atoms: _411  and  _413
REMARK  164  A    between atoms: _413  and  _414
REMARK  165  A    between atoms: _416  and  _418
REMARK  166  A    between atoms: _418  and  _419
REMARK  167  A    between atoms: _418  and  _421
REMARK  168  A    between atoms: _421  and  _422
REMARK  169  A    between atoms: _427  and  _428
REMARK  170  A    between atoms: _430  and  _432
REMARK  171  A    between atoms: _432  and  _433
REMARK  172  A    between atoms: _432  and  _435
REMARK  173  A    between atoms: _435  and  _436
REMARK  174  A    between atoms: _439  and  _441
REMARK  175  A    between atoms: _441  and  _442
REMARK  176  A    between atoms: _441  and  _444
REMARK  177  A    between atoms: _444  and  _445
REMARK  178  A    between atoms: _451  and  _453
REMARK  179  A    between atoms: _453  and  _454
REMARK  180  A    between atoms: _453  and  _456
REMARK  181  A    between atoms: _458  and  _460
REMARK  182  A    between atoms: _460  and  _461
REMARK  183  A    between atoms: _463  and  _465
REMARK  184  A    between atoms: _465  and  _466
REMARK  185  A    between atoms: _465  and  _468
REMARK  186  A    between atoms: _468  and  _469
REMARK  187  A    between atoms: _475  and  _477
REMARK  188  A    between atoms: _477  and  _478
REMARK  189  A    between atoms: _477  and  _480
REMARK  190  A    between atoms: _480  and  _481
REMARK  191  A    between atoms: _481  and  _482
REMARK  192  A    between atoms: _487  and  _489
REMARK  193  A    between atoms: _489  and  _490
REMARK  194  A    between atoms: _492  and  _494
REMARK  195  A    between atoms: _494  and  _495
REMARK  196  A    between atoms: _494  and  _497
REMARK  197  A    between atoms: _497  and  _498
REMARK  198  A    between atoms: _498  and  _499
REMARK  199  A    between atoms: _499  and  _500
REMARK  200  A    between atoms: _509  and  _511
REMARK  201  A    between atoms: _511  and  _512
REMARK  202  A    between atoms: _511  and  _514
REMARK  203  A    between atoms: _516  and  _518
REMARK  204  A    between atoms: _518  and  _519
REMARK  205  A    between atoms: _518  and  _521
REMARK  206  A    between atoms: _521  and  _522
REMARK  207  A    between atoms: _527  and  _529
REMARK  208  A    between atoms: _529  and  _530
REMARK  209  A    between atoms: _529  and  _532
REMARK  210  A    between atoms: _532  and  _533
REMARK  211  A    between atoms: _533  and  _534
REMARK  212  A    between atoms: _534  and  _535
REMARK  213  A    between atoms: _535  and  _536
REMARK  214  A    between atoms: _540  and  _542
REMARK  215  A    between atoms: _542  and  _543
REMARK  216  A    between atoms: _542  and  _545
REMARK  217  A    between atoms: _545  and  _546
REMARK  218  A    between atoms: _549  and  _551
REMARK  219  A    between atoms: _551  and  _552
REMARK  220  A    between atoms: _551  and  _554
REMARK  221  A    between atoms: _557  and  _559
REMARK  222  A    between atoms: _559  and  _560
REMARK  223  A    between atoms: _559  and  _562
REMARK  224  A    between atoms: _562  and  _563
REMARK  225  A    between atoms: _563  and  _565
REMARK  226  A    between atoms: _565  and  ZN_690
REMARK  227  A    between atoms: _566  and  _568
REMARK  228  A    between atoms: _568  and  _569
REMARK  229  A    between atoms: _568  and  _571
REMARK  230  A    between atoms: _571  and  _572
REMARK  231  A    between atoms: _572  and  ZN_690
REMARK  232  A    between atoms: _573  and  _575
REMARK  233  A    between atoms: _575  and  _576
REMARK  234  A    between atoms: _575  and  _578
REMARK  235  A    between atoms: _578  and  _579
REMARK  236  A    between atoms: _584  and  _585
REMARK  237  A    between atoms: _587  and  _589
REMARK  238  A    between atoms: _589  and  _590
REMARK  239  A    between atoms: _589  and  _592
REMARK  240  A    between atoms: _592  and  _593
REMARK  241  A    between atoms: _599  and  _601
REMARK  242  A    between atoms: _601  and  _602
REMARK  243  A    between atoms: _601  and  _604
REMARK  244  A    between atoms: _604  and  _605
REMARK  245  A    between atoms: _615  and  _617
REMARK  246  A    between atoms: _617  and  _618
REMARK  247  A    between atoms: _617  and  _620
REMARK  248  A    between atoms: _620  and  _621
REMARK  249  A    between atoms: _621  and  _622
REMARK  250  A    between atoms: _627  and  _629
REMARK  251  A    between atoms: _629  and  _630
REMARK  252  A    between atoms: _629  and  _632
REMARK  253  A    between atoms: _632  and  _633
REMARK  254  A    between atoms: _636  and  _638
REMARK  255  A    between atoms: _638  and  _639
REMARK  256  A    between atoms: _638  and  _641
REMARK  257  A    between atoms: _641  and  _642
REMARK  258  A    between atoms: _642  and  _643
REMARK  259  A    between atoms: _643  and  _644
REMARK  260  A    between atoms: _644  and  _645
REMARK  261  A    between atoms: _649  and  _651
REMARK  262  A    between atoms: _651  and  _652
REMARK  263  A    between atoms: _651  and  _654
REMARK  264  A    between atoms: _654  and  _655
REMARK  265  A    between atoms: _655  and  _656
REMARK  266  A    between atoms: _656  and  _657
REMARK  267  A    between atoms: _657  and  _658
REMARK  268  A    between atoms: _662  and  _664
REMARK  269  A    between atoms: _664  and  _665
REMARK  270  A    between atoms: _664  and  _667
REMARK  271  A    between atoms: _667  and  _668
REMARK  272  A    between atoms: _673  and  _674
REMARK  273  A    between atoms: _676  and  _678
REMARK  274  A    between atoms: _678  and  _679
REMARK  275  A    between atoms: _678  and  _681
REMARK  276  A    between atoms: _681  and  _682
REMARK  277  A    between atoms: _687  and  _688
REMARK                            x       y       z     vdW  Elec       q    Type
REMARK                         _______ _______ _______ _____ _____    ______ ____
ROOT
ATOM      1  C   GLY A   6     189.307 117.318  32.938  0.00  0.00    +0.243 C 
ATOM      2  O   GLY A   6     188.138 116.922  32.917  0.00  0.00    -0.273 OA
ATOM      3  N   TYR A   7     190.225 116.920  32.055  0.00  0.00    -0.297 N 
ATOM      4  H   TYR A   7     191.188 117.307  32.128  0.00  0.00    +0.150 HD
ENDROOT
BRANCH   3   5
ATOM      5  CA  TYR A   7     189.934 115.967  30.994  0.00  0.00    +0.153 C 
BRANCH   5   6
ATOM      6  C   TYR A   7     189.729 114.572  31.521  0.00  0.00    +0.241 C 
ATOM      7  N   THR A   8     190.440 114.194  32.591  0.00  0.00    -0.295 N 
ATOM      8  H   THR A   8     191.115 114.861  33.016  0.00  0.00    +0.150 HD
ATOM      9  O   TYR A   7     188.956 113.826  30.928  0.00  0.00    -0.273 OA
BRANCH   7  10
ATOM     10  CA  THR A   8     190.286 112.857  33.175  0.00  0.00    +0.176 C 
BRANCH  10  11
ATOM     11  C   THR A   8     188.892 112.643  33.813  0.00  0.00    +0.243 C 
ATOM     12  N   PHE A   9     188.337 113.689  34.429  0.00  0.00    -0.297 N 
ATOM     13  H   PHE A   9     188.866 114.583  34.487  0.00  0.00    +0.150 HD
ATOM     14  O   THR A   8     188.336 111.543  33.748  0.00  0.00    -0.273 OA
BRANCH  12  15
ATOM     15  CA  PHE A   9     187.011 113.610  35.021  0.00  0.00    +0.153 C 
BRANCH  15  16
ATOM     16  C   PHE A   9     186.028 113.413  33.872  0.00  0.00    +0.241 C 
ATOM     17  O   PHE A   9     185.213 112.502  33.920  0.00  0.00    -0.273 OA
ATOM     18  N   CYS A  10     186.140 114.230  32.820  0.00  0.00    -0.296 N 
ATOM     19  H   CYS A  10     186.888 114.953  32.823  0.00  0.00    +0.150 HD
BRANCH  18  20
ATOM     20  CA  CYS A  10     185.242 114.143  31.657  0.00  0.00    +0.160 C 
BRANCH  20  21
ATOM     21  C   CYS A  10     185.276 112.778  31.003  0.00  0.00    +0.242 C 
ATOM     22  N   GLY A  11     186.480 112.248  30.794  0.00  0.00    -0.296 N 
ATOM     23  H   GLY A  11     187.320 112.794  31.072  0.00  0.00    +0.150 HD
ATOM     24  O   CYS A  10     184.228 112.224  30.714  0.00  0.00    -0.273 OA
BRANCH  22  25
ATOM     25  CA  GLY A  11     186.668 110.939  30.194  0.00  0.00    +0.163 C 
BRANCH  25  26
ATOM     26  C   GLY A  11     186.057 109.838  31.037  0.00  0.00    +0.229 C 
ATOM     27  O   GLY A  11     185.253 109.077  30.524  0.00  0.00    -0.286 OA
ENDBRANCH  25  26
ENDBRANCH  22  25
ENDBRANCH  20  21
BRANCH  20  28
ATOM     28  CB  CYS A  10     185.545 115.226  30.614  0.00  0.00    +0.098 C 
ATOM     29  SG  CYS A  10     185.150 116.910  31.145  0.00  0.00    -0.080 S 
ENDBRANCH  20  28
ENDBRANCH  18  20
ENDBRANCH  15  16
BRANCH  15  30
ATOM     30  CB  PHE A   9     186.664 114.888  35.817  0.00  0.00    +0.055 C 
BRANCH  30  31
ATOM     31  CG  PHE A   9     185.201 114.984  36.200  0.00  0.00    -0.020 A 
ATOM     32  CD2 PHE A   9     184.709 114.291  37.302  0.00  0.00    -0.004 A 
ATOM     33  CE2 PHE A   9     183.311 114.250  37.559  0.00  0.00    -0.000 A 
ATOM     34  CZ  PHE A   9     182.416 114.913  36.708  0.00  0.00    -0.000 A 
ATOM     35  CE1 PHE A   9     182.901 115.621  35.617  0.00  0.00    -0.000 A 
ATOM     36  CD1 PHE A   9     184.280 115.658  35.371  0.00  0.00    -0.004 A 
ENDBRANCH  30  31
ENDBRANCH  15  30
ENDBRANCH  12  15
ENDBRANCH  10  11
BRANCH  10  37
ATOM     37  CB  THR A   8     191.381 112.558  34.196  0.00  0.00    +0.137 C 
ATOM     38  CG2 THR A   8     191.271 111.143  34.689  0.00  0.00    +0.034 C 
BRANCH  37  39
ATOM     39  OG1 THR A   8     192.654 112.715  33.570  0.00  0.00    -0.382 OA
ATOM     40  HG1 THR A   8     192.747 113.645  33.242  0.00  0.00    +0.210 HD
ENDBRANCH  37  39
ENDBRANCH  10  37
ENDBRANCH   7  10
ENDBRANCH   5   6
BRANCH   5  41
ATOM     41  CB  TYR A   7     191.051 115.922  29.966  0.00  0.00    +0.055 C 
BRANCH  41  42
ATOM     42  CG  TYR A   7     191.171 117.180  29.180  0.00  0.00    -0.020 A 
ATOM     43  CD2 TYR A   7     192.341 117.928  29.205  0.00  0.00    -0.001 A 
ATOM     44  CE2 TYR A   7     192.444 119.109  28.492  0.00  0.00    +0.036 A 
ATOM     45  CZ  TYR A   7     191.362 119.548  27.742  0.00  0.00    +0.134 A 
ATOM     46  CE1 TYR A   7     190.190 118.812  27.696  0.00  0.00    +0.036 A 
ATOM     47  CD1 TYR A   7     190.104 117.638  28.416  0.00  0.00    -0.001 A 
BRANCH  45  48
ATOM     48  OH  TYR A   7     191.423 120.751  27.071  0.00  0.00    -0.506 OA
ATOM     49  HH  TYR A   7     191.263 120.598  26.106  0.00  0.00    +0.292 HD
ENDBRANCH  45  48
ENDBRANCH  41  42
ENDBRANCH   5  41
ENDBRANCH   3   5
BRANCH   1  50
ATOM     50  CA  GLY A   6     189.775 118.314  33.997  0.00  0.00    +0.176 C 
BRANCH  50  53
ATOM     51  C   GLY A   5     191.146 116.854  35.328  0.00  0.00    +0.243 C 
ATOM     52  O   GLY A   5     190.170 116.138  35.561  0.00  0.00    -0.273 OA
ATOM     53  N   GLY A   6     191.060 117.953  34.589  0.00  0.00    -0.295 N 
ATOM     54  H   GLY A   6     191.897 118.550  34.433  0.00  0.00    +0.150 HD
BRANCH  51  55
ATOM     55  CA  GLY A   5     192.495 116.504  35.907  0.00  0.00    +0.176 C 
BRANCH  55  57
ATOM     56  C   HIS A   4     193.711 116.054  33.834  0.00  0.00    +0.241 C 
ATOM     57  N   GLY A   5     193.608 116.691  35.003  0.00  0.00    -0.295 N 
ATOM     58  H   GLY A   5     194.363 117.352  35.276  0.00  0.00    +0.150 HD
ATOM     59  O   HIS A   4     192.875 115.268  33.405  0.00  0.00    -0.273 OA
BRANCH  56  60
ATOM     60  CA  HIS A   4     194.954 116.385  33.016  0.00  0.00    +0.155 C 
BRANCH  60  63
ATOM     61  C   ALA A   3     196.748 114.904  32.318  0.00  0.00    +0.241 C 
ATOM     62  O   ALA A   3     197.573 115.483  33.023  0.00  0.00    -0.273 OA
ATOM     63  N   HIS A   4     195.461 115.243  32.276  0.00  0.00    -0.297 N 
ATOM     64  H   HIS A   4     194.805 114.678  31.701  0.00  0.00    +0.150 HD
BRANCH  61  65
ATOM     65  CA  ALA A   3     197.166 113.713  31.466  0.00  0.00    +0.149 C 
ATOM     66  CB  ALA A   3     197.508 112.533  32.342  0.00  0.00    +0.031 C 
BRANCH  65  68
ATOM     67  C   GLU A   2     198.224 114.884  29.596  0.00  0.00    +0.241 C 
ATOM     68  N   ALA A   3     198.306 114.038  30.620  0.00  0.00    -0.297 N 
ATOM     69  H   ALA A   3     199.222 113.590  30.825  0.00  0.00    +0.150 HD
ATOM     70  O   GLU A   2     197.189 115.461  29.278  0.00  0.00    -0.273 OA
BRANCH  67  71
ATOM     71  CA  GLU A   2     199.494 115.112  28.816  0.00  0.00    +0.149 C 
BRANCH  71  73
ATOM     72  C   MET A   1     198.499 114.384  26.712  0.00  0.00    +0.238 C 
ATOM     73  N   GLU A   2     199.170 115.280  27.419  0.00  0.00    -0.297 N 
ATOM     74  H   GLU A   2     199.480 116.151  26.943  0.00  0.00    +0.150 HD
ATOM     75  O   MET A   1     198.081 113.332  27.179  0.00  0.00    -0.274 OA
BRANCH  72  76
ATOM     76  CA  MET A   1     198.259 114.767  25.265  0.00  0.00    +0.146 C 
BRANCH  76  77
ATOM     77  N   MET A   1     198.091 113.674  24.320  0.00  0.00    -0.238 NA
ATOM     78  H   MET A   1     197.133 113.411  24.013  0.00  0.00    +0.142 HD
ENDBRANCH  76  77
BRANCH  76  79
ATOM     79  CB  MET A   1     197.069 115.714  25.166  0.00  0.00    +0.038 C 
BRANCH  79  80
ATOM     80  CG  MET A   1     197.143 116.599  23.943  0.00  0.00    +0.060 C 
BRANCH  80  81
ATOM     81  SD  MET A   1     198.733 117.442  23.995  0.00  0.00    -0.139 S 
ATOM     82  CE  MET A   1     198.304 118.768  25.102  0.00  0.00    +0.069 C 
ENDBRANCH  80  81
ENDBRANCH  79  80
ENDBRANCH  76  79
ENDBRANCH  72  76
ENDBRANCH  71  73
BRANCH  71  83
ATOM     83  CB  GLU A   2     200.177 116.363  29.317  0.00  0.00    +0.041 C 
BRANCH  83  84
ATOM     84  CG  GLU A   2     200.578 116.295  30.762  0.00  0.00    +0.116 C 
BRANCH  84  85
ATOM     85  CD  GLU A   2     201.208 117.578  31.260  0.00  0.00    +0.365 C 
ATOM     86  OE2 GLU A   2     201.760 117.558  32.391  0.00  0.00    -0.246 OA
ATOM     87  OE1 GLU A   2     201.150 118.605  30.531  0.00  0.00    -0.246 OA
ENDBRANCH  84  85
ENDBRANCH  83  84
ENDBRANCH  71  83
ENDBRANCH  67  71
ENDBRANCH  65  68
ENDBRANCH  61  65
ENDBRANCH  60  63
BRANCH  60  88
ATOM     88  CB  HIS A   4     194.673 117.569  32.063  0.00  0.00    +0.076 C 
BRANCH  88  89
ATOM     89  CG  HIS A   4     194.561 118.891  32.763  0.00  0.00    +0.082 A 
ATOM     90  ND1 HIS A   4     193.400 119.305  33.385  0.00  0.00    -0.227 NA
ATOM     91  CE1 HIS A   4     193.615 120.459  33.993  0.00  0.00    +0.199 A 
ATOM     92  NE2 HIS A   4     194.871 120.816  33.780  0.00  0.00    -0.221 NA
ATOM     93  CD2 HIS A   4     195.484 119.856  33.008  0.00  0.00    +0.115 A 
ENDBRANCH  88  89
ENDBRANCH  60  88
ENDBRANCH  56  60
ENDBRANCH  55  57
ENDBRANCH  51  55
ENDBRANCH  50  53
ENDBRANCH   1  50
TORSDOF 38
REMARK  Name = ../refined-set-2016/1o1s/1o1s_pocket.pdb
REMARK  277 active torsions:
REMARK  status: ('A' for Active; 'I' for Inactive)
REMARK    1  A    between atoms: _1  and  _3
REMARK    2  A    between atoms: _3  and  _4
REMARK    3  A    between atoms: _7  and  _9
REMARK    4  A    between atoms: _9  and  _10
REMARK    5  A    between atoms: _9  and  _12
REMARK    6  A    between atoms: _12  and  _13
REMARK    7  A    between atoms: _18  and  _19
REMARK    8  A    between atoms: _21  and  _23
REMARK    9  A    between atoms: _23  and  _24
REMARK   10  A    between atoms: _23  and  _26
REMARK   11  A    between atoms: _26  and  _27
REMARK   12  A    between atoms: _27  and  _28
REMARK   13  A    between atoms: _28  and  _29
REMARK   14  A    between atoms: _29  and  _30
REMARK   15  A    between atoms: _34  and  _36
REMARK   16  A    between atoms: _36  and  _37
REMARK   17  A    between atoms: _36  and  _39
REMARK   18  A    between atoms: _39  and  _40
REMARK   19  A    between atoms: _45  and  _47
REMARK   20  A    between atoms: _47  and  _48
REMARK   21  A    between atoms: _47  and  _50
REMARK   22  A    between atoms: _50  and  _51
REMARK   23  A    between atoms: _56  and  _57
REMARK   24  A    between atoms: _59  and  _61
REMARK   25  A    between atoms: _61  and  _62
REMARK   26  A    between atoms: _61  and  _64
REMARK   27  A    between atoms: _64  and  _65
REMARK   28  A    between atoms: _65  and  _66
REMARK   29  A    between atoms: _71  and  _73
REMARK   30  A    between atoms: _73  and  _74
REMARK   31  A    between atoms: _73  and  _76
REMARK   32  A    between atoms: _76  and  _77
REMARK   33  A    between atoms: _80  and  _82
REMARK   34  A    between atoms: _82  and  _83
REMARK   35  A    between atoms: _82  and  _85
REMARK   36  A    between atoms: _85  and  _86
REMARK   37  A    between atoms: _86  and  _87
REMARK   38  A    between atoms: _87  and  _88
REMARK   39  A    between atoms: _88  and  _89
REMARK   40  A    between atoms: _93  and  _95
REMARK   41  A    between atoms: _95  and  _96
REMARK   42  A    between atoms: _95  and  _98
REMARK   43  A    between atoms: _98  and  _99
REMARK   44  A    between atoms: _104  and  _106
REMARK   45  A    between atoms: _106  and  _107
REMARK   46  A    between atoms: _106  and  _109
REMARK   47  A    between atoms: _109  and  _110
REMARK   48  A    between atoms: _115  and  _116
REMARK   49  A    between atoms: _118  and  _120
REMARK   50  A    between atoms: _120  and  _121
REMARK   51  A    between atoms: _120  and  _123
REMARK   52  A    between atoms: _123  and  _124
REMARK   53  A    between atoms: _129  and  _131
REMARK   54  A    between atoms: _131  and  _132
REMARK   55  A    between atoms: _135  and  _137
REMARK   56  A    between atoms: _137  and  _138
REMARK   57  A    between atoms: _137  and  _140
REMARK   58  A    between atoms: _140  and  _141
REMARK   59  A    between atoms: _141  and  _142
REMARK   60  A    between atoms: _147  and  _149
REMARK   61  A    between atoms: _149  and  _150
REMARK   62  A    between atoms: _149  and  _152
REMARK   63  A    between atoms: _152  and  _153
REMARK   64  A    between atoms: _155  and  _157
REMARK   65  A    between atoms: _157  and  _158
REMARK   66  A    between atoms: _157  and  _160
REMARK   67  A    between atoms: _160  and  _161
REMARK   68  A    between atoms: _164  and  _166
REMARK   69  A    between atoms: _166  and  _167
REMARK   70  A    between atoms: _170  and  _172
REMARK   71  A    between atoms: _172  and  _173
REMARK   72  A    between atoms: _172  and  _175
REMARK   73  A    between atoms: _175  and  _176
REMARK   74  A    between atoms: _178  and  _180
REMARK   75  A    between atoms: _180  and  _181
REMARK   76  A    between atoms: _180  and  _183
REMARK   77  A    between atoms: _183  and  _184
REMARK   78  A    between atoms: _194  and  _196
REMARK   79  A    between atoms: _196  and  _197
REMARK   80  A    between atoms: _196  and  _199
REMARK   81  A    between atoms: _199  and  _200
REMARK   82  A    between atoms: _210  and  _212
REMARK   83  A    between atoms: _212  and  _213
REMARK   84  A    between atoms: _212  and  _215
REMARK   85  A    between atoms: _215  and  _216
REMARK   86  A    between atoms: _221  and  _223
REMARK   87  A    between atoms: _223  and  _224
REMARK   88  A    between atoms: _223  and  _226
REMARK   89  A    between atoms: _226  and  _227
REMARK   90  A    between atoms: _230  and  _232
REMARK   91  A    between atoms: _232  and  _233
REMARK   92  A    between atoms: _237  and  _238
REMARK   93  A    between atoms: _243  and  _245
REMARK   94  A    between atoms: _245  and  _246
REMARK   95  A    between atoms: _245  and  _248
REMARK   96  A    between atoms: _248  and  _249
REMARK   97  A    between atoms: _252  and  _254
REMARK   98  A    between atoms: _254  and  _255
REMARK   99  A    between atoms: _254  and  _257
REMARK  100  A    between atoms: _257  and  _258
REMARK  101  A    between atoms: _263  and  _264
REMARK  102  A    between atoms: _266  and  _268
REMARK  103  A    between atoms: _268  and  _269
REMARK  104  A    between atoms: _272  and  _274
REMARK  105  A    between atoms: _274  and  _275
REMARK  106  A    between atoms: _274  and  _277
REMARK  107  A    between atoms: _277  and  _278
REMARK  108  A    between atoms: _278  and  _279
REMARK  109  A    between atoms: _281  and  _283
REMARK  110  A    between atoms: _283  and  _284
REMARK  111  A    between atoms: _283  and  _286
REMARK  112  A    between atoms: _286  and  _287
REMARK  113  A    between atoms: _292  and  _294
REMARK  114  A    between atoms: _294  and  _295
REMARK  115  A    between atoms: _294  and  _297
REMARK  116  A    between atoms: _297  and  _298
REMARK  117  A    between atoms: _298  and  _299
REMARK  118  A    between atoms: _302  and  _304
REMARK  119  A    between atoms: _304  and  _305
REMARK  120  A    between atoms: _304  and  _307
REMARK  121  A    between atoms: _307  and  _308
REMARK  122  A    between atoms: _311  and  _313
REMARK  123  A    between atoms: _313  and  _314
REMARK  124  A    between atoms: _313  and  _316
REMARK  125  A    between atoms: _319  and  _321
REMARK  126  A    between atoms: _321  and  _322
REMARK  127  A    between atoms: _321  and  _324
REMARK  128  A    between atoms: _324  and  _325
REMARK  129  A    between atoms: _325  and  _326
REMARK  130  A    between atoms: _326  and  _327
REMARK  131  A    between atoms: _336  and  _338
REMARK  132  A    between atoms: _338  and  _339
REMARK  133  A    between atoms: _338  and  _341
REMARK  134  A    between atoms: _341  and  _342
REMARK  135  A    between atoms: _344  and  _346
REMARK  136  A    between atoms: _346  and  _347
REMARK  137  A    between atoms: _346  and  _349
REMARK  138  A    between atoms: _349  and  _350
REMARK  139  A    between atoms: _355  and  _356
REMARK  140  A    between atoms: _358  and  _360
REMARK  141  A    between atoms: _360  and  _361
REMARK  142  A    between atoms: _360  and  _363
REMARK  143  A    between atoms: _365  and  _367
REMARK  144  A    between atoms: _367  and  _368
REMARK  145  A    between atoms: _370  and  _372
REMARK  146  A    between atoms: _372  and  _373
REMARK  147  A    between atoms: _372  and  _375
REMARK  148  A    between atoms: _375  and  _376
REMARK  149  A    between atoms: _376  and  _377
REMARK  150  A    between atoms: _379  and  _381
REMARK  151  A    between atoms: _381  and  _382
REMARK  152  A    between atoms: _381  and  _384
REMARK  153  A    between atoms: _384  and  _385
REMARK  154  A    between atoms: _385  and  _386
REMARK  155  A    between atoms: _389  and  _391
REMARK  156  A    between atoms: _391  and  _392
REMARK  157  A    between atoms: _395  and  _397
REMARK  158  A    between atoms: _397  and  _398
REMARK  159  A    between atoms: _397  and  _400
REMARK  160  A    between atoms: _400  and  _401
REMARK  161  A    between atoms: _406  and  _408
REMARK  162  A    between atoms: _408  and  _409
REMARK  163  A    between atoms: _411  and  _413
REMARK  164  A    between atoms: _413  and  _414
REMARK  165  A    between atoms: _416  and  _418
REMARK  166  A    between atoms: _418  and  _419
REMARK  167  A    between atoms: _418  and  _421
REMARK  168  A    between atoms: _421  and  _422
REMARK  169  A    between atoms: _427  and  _428
REMARK  170  A    between atoms: _430  and  _432
REMARK  171  A    between atoms: _432  and  _433
REMARK  172  A    between atoms: _432  and  _435
REMARK  173  A    between atoms: _435  and  _436
REMARK  174  A    between atoms: _439  and  _441
REMARK  175  A    between atoms: _441  and  _442
REMARK  176  A    between atoms: _441  and  _444
REMARK  177  A    between atoms: _444  and  _445
REMARK  178  A    between atoms: _451  and  _453
REMARK  179  A    between atoms: _453  and  _454
REMARK  180  A    between atoms: _453  and  _456
REMARK  181  A    between atoms: _458  and  _460
REMARK  182  A    between atoms: _460  and  _461
REMARK  183  A    between atoms: _463  and  _465
REMARK  184  A    between atoms: _465  and  _466
REMARK  185  A    between atoms: _465  and  _468
REMARK  186  A    between atoms: _468  and  _469
REMARK  187  A    between atoms: _475  and  _477
REMARK  188  A    between atoms: _477  and  _478
REMARK  189  A    between atoms: _477  and  _480
REMARK  190  A    between atoms: _480  and  _481
REMARK  191  A    between atoms: _481  and  _482
REMARK  192  A    between atoms: _487  and  _489
REMARK  193  A    between atoms: _489  and  _490
REMARK  194  A    between atoms: _492  and  _494
REMARK  195  A    between atoms: _494  and  _495
REMARK  196  A    between atoms: _494  and  _497
REMARK  197  A    between atoms: _497  and  _498
REMARK  198  A    between atoms: _498  and  _499
REMARK  199  A    between atoms: _499  and  _500
REMARK  200  A    between atoms: _509  and  _511
REMARK  201  A    between atoms: _511  and  _512
REMARK  202  A    between atoms: _511  and  _514
REMARK  203  A    between atoms: _516  and  _518
REMARK  204  A    between atoms: _518  and  _519
REMARK  205  A    between atoms: _518  and  _521
REMARK  206  A    between atoms: _521  and  _522
REMARK  207  A    between atoms: _527  and  _529
REMARK  208  A    between atoms: _529  and  _530
REMARK  209  A    between atoms: _529  and  _532
REMARK  210  A    between atoms: _532  and  _533
REMARK  211  A    between atoms: _533  and  _534
REMARK  212  A    between atoms: _534  and  _535
REMARK  213  A    between atoms: _535  and  _536
REMARK  214  A    between atoms: _540  and  _542
REMARK  215  A    between atoms: _542  and  _543
REMARK  216  A    between atoms: _542  and  _545
REMARK  217  A    between atoms: _545  and  _546
REMARK  218  A    between atoms: _549  and  _551
REMARK  219  A    between atoms: _551  and  _552
REMARK  220  A    between atoms: _551  and  _554
REMARK  221  A    between atoms: _557  and  _559
REMARK  222  A    between atoms: _559  and  _560
REMARK  223  A    between atoms: _559  and  _562
REMARK  224  A    between atoms: _562  and  _563
REMARK  225  A    between atoms: _563  and  _565
REMARK  226  A    between atoms: _565  and  ZN_690
REMARK  227  A    between atoms: _566  and  _568
REMARK  228  A    between atoms: _568  and  _569
REMARK  229  A    between atoms: _568  and  _571
REMARK  230  A    between atoms: _571  and  _572
REMARK  231  A    between atoms: _572  and  ZN_690
REMARK  232  A    between atoms: _573  and  _575
REMARK  233  A    between atoms: _575  and  _576
REMARK  234  A    between atoms: _575  and  _578
REMARK  235  A    between atoms: _578  and  _579
REMARK  236  A    between atoms: _584  and  _585
REMARK  237  A    between atoms: _587  and  _589
REMARK  238  A    between atoms: _589  and  _590
REMARK  239  A    between atoms: _589  and  _592
REMARK  240  A    between atoms: _592  and  _593
REMARK  241  A    between atoms: _599  and  _601
REMARK  242  A    between atoms: _601  and  _602
REMARK  243  A    between atoms: _601  and  _604
REMARK  244  A    between atoms: _604  and  _605
REMARK  245  A    between atoms: _615  and  _617
REMARK  246  A    between atoms: _617  and  _618
REMARK  247  A    between atoms: _617  and  _620
REMARK  248  A    between atoms: _620  and  _621
REMARK  249  A    between atoms: _621  and  _622
REMARK  250  A    between atoms: _627  and  _629
REMARK  251  A    between atoms: _629  and  _630
REMARK  252  A    between atoms: _629  and  _632
REMARK  253  A    between atoms: _632  and  _633
REMARK  254  A    between atoms: _636  and  _638
REMARK  255  A    between atoms: _638  and  _639
REMARK  256  A    between atoms: _638  and  _641
REMARK  257  A    between atoms: _641  and  _642
REMARK  258  A    between atoms: _642  and  _643
REMARK  259  A    between atoms: _643  and  _644
REMARK  260  A    between atoms: _644  and  _645
REMARK  261  A    between atoms: _649  and  _651
REMARK  262  A    between atoms: _651  and  _652
REMARK  263  A    between atoms: _651  and  _654
REMARK  264  A    between atoms: _654  and  _655
REMARK  265  A    between atoms: _655  and  _656
REMARK  266  A    between atoms: _656  and  _657
REMARK  267  A    between atoms: _657  and  _658
REMARK  268  A    between atoms: _662  and  _664
REMARK  269  A    between atoms: _664  and  _665
REMARK  270  A    between atoms: _664  and  _667
REMARK  271  A    between atoms: _667  and  _668
REMARK  272  A    between atoms: _673  and  _674
REMARK  273  A    between atoms: _676  and  _678
REMARK  274  A    between atoms: _678  and  _679
REMARK  275  A    between atoms: _678  and  _681
REMARK  276  A    between atoms: _681  and  _682
REMARK  277  A    between atoms: _687  and  _688
REMARK                            x       y       z     vdW  Elec       q    Type
REMARK                         _______ _______ _______ _____ _____    ______ ____
ROOT
ATOM      1  C   ASN A   6     203.994 120.304  38.334  0.00  0.00    +0.000 C 
ATOM      2  N   LYS A   7     202.698 120.496  38.570  0.00  0.00    +0.000 N 
ATOM      3  H   LYS A   7     202.113 119.686  38.857  0.00  0.00    +0.000 HD
ATOM      4  O   ASN A   6     204.746 121.191  37.907  0.00  0.00    +0.000 OA
ENDROOT
BRANCH   1   5
ATOM      5  CA  ASN A   6     204.513 118.894  38.610  0.00  0.00    +0.000 C 
BRANCH   5   7
ATOM      6  C   CYS A   5     202.960 117.407  37.457  0.00  0.00    +0.000 C 
ATOM      7  N   ASN A   6     203.542 117.802  38.584  0.00  0.00    +0.000 N 
ATOM      8  H   ASN A   6     203.300 117.320  39.473  0.00  0.00    +0.000 HD
ATOM      9  O   CYS A   5     203.160 117.967  36.381  0.00  0.00    +0.000 OA
BRANCH   6  10
ATOM     10  CA  CYS A   5     201.982 116.236  37.572  0.00  0.00    +0.000 C 
BRANCH  10  13
ATOM     11  C   ARG A   4     199.997 117.475  36.967  0.00  0.00    +0.000 C 
ATOM     12  O   ARG A   4     200.313 118.380  37.715  0.00  0.00    +0.000 OA
ATOM     13  N   CYS A   5     200.745 116.395  36.818  0.00  0.00    +0.000 N 
ATOM     14  H   CYS A   5     200.447 115.651  36.155  0.00  0.00    +0.000 HD
BRANCH  11  15
ATOM     15  CA  ARG A   4     198.698 117.556  36.181  0.00  0.00    +0.000 C 
BRANCH  15  17
ATOM     16  C   GLY A   3     196.532 118.400  36.922  0.00  0.00    +0.000 C 
ATOM     17  N   ARG A   4     197.852 118.492  36.898  0.00  0.00    +0.000 N 
ATOM     18  H   ARG A   4     198.304 119.271  37.417  0.00  0.00    +0.000 HD
ATOM     19  O   GLY A   3     195.902 117.558  36.303  0.00  0.00    +0.000 OA
BRANCH  16  20
ATOM     20  CA  GLY A   3     195.811 119.458  37.710  0.00  0.00    +0.000 C 
BRANCH  20  23
ATOM     21  C   TYR A   2     196.406 119.102  40.027  0.00  0.00    +0.000 C 
ATOM     22  O   TYR A   2     195.885 117.978  40.023  0.00  0.00    +0.000 OA
ATOM     23  N   GLY A   3     196.430 119.882  38.951  0.00  0.00    +0.000 N 
ATOM     24  H   GLY A   3     196.899 120.809  39.000  0.00  0.00    +0.000 HD
BRANCH  21  25
ATOM     25  CA  TYR A   2     197.046 119.685  41.315  0.00  0.00    +0.000 C 
BRANCH  25  28
ATOM     26  C   UNK A   1     195.398 119.553  43.119  0.00  0.00    +0.000 C 
ATOM     27  O   UNK A   1     194.980 120.711  42.953  0.00  0.00    +0.000 OA
ATOM     28  N   TYR A   2     196.397 119.014  42.429  0.00  0.00    +0.000 N 
ATOM     29  H   TYR A   2     196.731 118.067  42.699  0.00  0.00    +0.000 HD
BRANCH  26  30
ATOM     30  C   UNK A   1     194.812 118.646  44.194  0.00  0.00    +0.000 C 
BRANCH  30  31
ATOM     31  N   UNK A   1     194.374 119.350  45.408  0.00  0.00    +0.000 NA
ATOM     32  H   UNK A   1     193.487 119.892  45.388  0.00  0.00    +0.000 HD
ENDBRANCH  30  31
BRANCH  30  33
ATOM     33  C   UNK A   1     193.653 117.849  43.579  0.00  0.00    +0.000 C 
BRANCH  33  34
ATOM     34  C   UNK A   1     193.354 116.541  44.282  0.00  0.00    +0.000 A 
ATOM     35  C   UNK A   1     192.518 116.499  45.404  0.00  0.00    +0.000 A 
ATOM     36  C   UNK A   1     192.191 115.273  46.010  0.00  0.00    +0.000 A 
ATOM     37  C   UNK A   1     192.696 114.084  45.498  0.00  0.00    +0.000 A 
ATOM     38  C   UNK A   1     193.528 114.118  44.392  0.00  0.00    +0.000 A 
ATOM     39  C   UNK A   1     193.856 115.338  43.789  0.00  0.00    +0.000 A 
ENDBRANCH  33  34
ENDBRANCH  30  33
ENDBRANCH  26  30
ENDBRANCH  25  28
BRANCH  25  40
ATOM     40  CB  TYR A   2     198.549 119.423  41.329  0.00  0.00    +0.000 C 
BRANCH  40  41
ATOM     41  CG  TYR A   2     198.890 117.987  41.039  0.00  0.00    +0.000 C 
BRANCH  41  42
ATOM     42  CD  TYR A   2     200.362 117.693  41.094  0.00  0.00    +0.000 C 
ATOM     43  NE2 TYR A   2     201.159 118.706  41.372  0.00  0.00    +0.000 N 
ATOM     44 HE21 TYR A   2     200.759 119.650  41.547  0.00  0.00    +0.000 HD
ATOM     45 HE22 TYR A   2     202.188 118.561  41.417  0.00  0.00    +0.000 HD
ATOM     46  OE1 TYR A   2     200.780 116.565  40.881  0.00  0.00    +0.000 OA
ENDBRANCH  41  42
ENDBRANCH  40  41
ENDBRANCH  25  40
ENDBRANCH  21  25
ENDBRANCH  20  23
ENDBRANCH  16  20
ENDBRANCH  15  17
BRANCH  15  47
ATOM     47  CB  ARG A   4     198.939 118.043  34.749  0.00  0.00    +0.000 C 
BRANCH  47  48
ATOM     48  CG  ARG A   4     198.787 119.545  34.532  0.00  0.00    +0.000 C 
BRANCH  48  49
ATOM     49  CD  ARG A   4     199.071 119.901  33.082  0.00  0.00    +0.000 C 
BRANCH  49  50
ATOM     50  NE  ARG A   4     198.769 121.300  32.788  0.00  0.00    +0.330 N 
ATOM     51  HE  ARG A   4     198.026 121.761  33.351  0.00  0.00    +0.000 HD
ATOM     52  CZ  ARG A   4     199.376 122.028  31.851  0.00  0.00    +0.000 C 
ATOM     53  NH2 ARG A   4     199.069 123.315  31.695  0.00  0.00    +0.330 N 
ATOM     54 HH21 ARG A   4     198.352 123.756  32.306  0.00  0.00    +0.000 HD
ATOM     55 HH22 ARG A   4     199.546 123.878  30.962  0.00  0.00    +0.000 HD
ATOM     56  NH1 ARG A   4     200.330 121.481  31.100  0.00  0.00    +0.330 N 
ATOM     57 HH11 ARG A   4     200.600 120.487  31.245  0.00  0.00    +0.000 HD
ATOM     58 HH12 ARG A   4     200.805 122.048  30.368  0.00  0.00    +0.000 HD
ENDBRANCH  49  50
ENDBRANCH  48  49
ENDBRANCH  47  48
ENDBRANCH  15  47
ENDBRANCH  11  15
ENDBRANCH  10  13
BRANCH  10  59
ATOM     59  CB  CYS A   5     202.651 114.929  37.164  0.00  0.00    +0.000 C 
ATOM     60  SG  CYS A   5     204.210 114.554  37.987  0.00  0.00    +0.000 S 
ENDBRANCH  10  59
ENDBRANCH   6  10
ENDBRANCH   5   7
BRANCH   5  61
ATOM     61  CB  ASN A   6     205.741 118.577  37.753  0.00  0.00    +0.000 C 
BRANCH  61  62
ATOM     62  CG  ASN A   6     206.824 117.866  38.549  0.00  0.00    +0.000 C 
ATOM     63  OD1 ASN A   6     206.969 118.102  39.739  0.00  0.00    +0.000 OA
ATOM     64  ND2 ASN A   6     207.581 116.998  37.899  0.00  0.00    +0.000 N 
ATOM     65 HD21 ASN A   6     208.334 116.486  38.402  0.00  0.00    +0.000 HD
ATOM     66 HD22 ASN A   6     207.423 116.827  36.885  0.00  0.00    +0.000 HD
ENDBRANCH  61  62
ENDBRANCH   5  61
ENDBRANCH   1   5
BRANCH   2  67
ATOM     67  CA  LYS A   7     202.077 121.799  38.439  0.00  0.00    +0.000 C 
BRANCH  67  68
ATOM     68  C   LYS A   7     201.528 122.176  39.813  0.00  0.00    +0.000 C 
ATOM     69  O   LYS A   7     201.749 121.454  40.791  0.00  0.00    +0.000 OA
ATOM     70  N   LEU A   8     200.851 123.312  39.907  0.00  0.00    +0.000 N 
ATOM     71  H   LEU A   8     200.662 123.870  39.050  0.00  0.00    +0.000 HD
BRANCH  70  72
ATOM     72  CA  LEU A   8     200.368 123.788  41.201  0.00  0.00    +0.000 C 
BRANCH  72  73
ATOM     73  C   LEU A   8     199.004 123.343  41.628  0.00  0.00    +0.000 C 
ATOM     74  N   VAL A   9     198.816 123.319  42.936  0.00  0.00    +0.000 N 
ATOM     75  H   VAL A   9     199.607 123.576  43.560  0.00  0.00    +0.000 HD
ATOM     76  O   LEU A   8     198.142 123.072  40.816  0.00  0.00    +0.000 OA
BRANCH  74  77
ATOM     77  CA  VAL A   9     197.556 122.950  43.529  0.00  0.00    +0.000 C 
BRANCH  77  78
ATOM     78  C   VAL A   9     196.561 124.015  43.093  0.00  0.00    +0.000 C 
ATOM     79  N   UNK A  10     195.276 123.690  43.068  0.00  0.00    +0.000 N 
ATOM     80  H   UNK A  10     194.997 122.726  43.340  0.00  0.00    +0.000 HD
ATOM     81  O   VAL A   9     196.959 125.125  42.787  0.00  0.00    +0.000 OA
BRANCH  79  82
ATOM     82  C   UNK A  10     194.236 124.642  42.670  0.00  0.00    +0.000 C 
BRANCH  82  83
ATOM     83  C   UNK A  10     192.935 124.067  43.206  0.00  0.00    +0.000 C 
ATOM     84  O   UNK A  10     192.613 122.904  42.988  0.00  0.00    +0.000 OA
ENDBRANCH  82  83
BRANCH  82  85
ATOM     85  C   UNK A  10     194.201 124.767  41.140  0.00  0.00    +0.000 C 
BRANCH  85  86
ATOM     86  C   UNK A  10     193.056 125.635  40.622  0.00  0.00    +0.000 C 
ATOM     87  O   UNK A  10     192.110 125.954  41.363  0.00  0.00    +0.000 OA
BRANCH  86  88
ATOM     88  O   UNK A  10     193.096 126.002  39.431  0.00  0.00    +0.000 OA
BRANCH  88  89
ATOM     89 ZN   UNK A  10     191.176 126.411  39.181  0.00  0.00    +0.000 Zn
ATOM     90  O   UNK A  10     191.425 127.367  37.242  0.00  0.00    +0.000 OA
BRANCH  89  91
ATOM     91  S   UNK A   1     190.157 124.351  39.063  0.00  0.00    +0.000 S 
BRANCH  91  92
ATOM     92  C   UNK A   1     188.709 124.531  40.125  0.00  0.00    +0.000 C 
BRANCH  92  93
ATOM     93  C   UNK A   1     188.788 123.778  41.458  0.00  0.00    +0.000 C 
BRANCH  93  94
ATOM     94  C   UNK A   1     188.999 122.295  41.252  0.00  0.00    +0.000 C 
ATOM     95  N   TYR A   2     190.241 121.842  41.429  0.00  0.00    +0.000 N 
ATOM     96  H   TYR A   2     190.994 122.515  41.678  0.00  0.00    +0.000 HD
ATOM     97  O   UNK A   1     188.038 121.569  41.012  0.00  0.00    +0.000 OA
BRANCH  95  98
ATOM     98  CA  TYR A   2     190.573 120.431  41.284  0.00  0.00    +0.000 C 
BRANCH  98  99
ATOM     99  C   TYR A   2     190.091 119.595  42.471  0.00  0.00    +0.000 C 
ATOM    100  O   TYR A   2     190.239 118.365  42.500  0.00  0.00    +0.000 OA
ENDBRANCH  98  99
BRANCH  98 101
ATOM    101  CB  TYR A   2     192.073 120.232  41.049  0.00  0.00    +0.000 C 
BRANCH 101 102
ATOM    102  CG  TYR A   2     192.558 120.799  39.719  0.00  0.00    +0.000 A 
ATOM    103  CD2 TYR A   2     193.653 121.668  39.670  0.00  0.00    +0.000 A 
ATOM    104  CE2 TYR A   2     194.054 122.268  38.477  0.00  0.00    +0.000 A 
ATOM    105  CZ  TYR A   2     193.366 121.999  37.305  0.00  0.00    +0.000 A 
ATOM    106  CE1 TYR A   2     192.279 121.129  37.302  0.00  0.00    +0.000 A 
ATOM    107  CD1 TYR A   2     191.879 120.528  38.513  0.00  0.00    +0.000 A 
BRANCH 105 108
ATOM    108  OH  TYR A   2     193.768 122.643  36.165  0.00  0.00    +0.000 OA
ATOM    109  HH  TYR A   2     194.551 123.213  36.368  0.00  0.00    +0.000 HD
ENDBRANCH 105 108
ENDBRANCH 101 102
ENDBRANCH  98 101
ENDBRANCH  95  98
ENDBRANCH  93  94
BRANCH  93 110
ATOM    110  N   UNK A   1     189.836 124.305  42.324  0.00  0.00    +0.000 NA
ATOM    111  H   UNK A   1     190.547 124.964  41.947  0.00  0.00    +0.000 HD
ENDBRANCH  93 110
ENDBRANCH  92  93
ENDBRANCH  91  92
ENDBRANCH  89  91
ENDBRANCH  88  89
ENDBRANCH  86  88
ENDBRANCH  85  86
ENDBRANCH  82  85
ENDBRANCH  79  82
ENDBRANCH  77  78
BRANCH  77 112
ATOM    112  CB  VAL A   9     197.701 122.977  45.054  0.00  0.00    +0.000 C 
ATOM    113  CG2 VAL A   9     196.464 122.413  45.705  0.00  0.00    +0.000 C 
ATOM    114  CG1 VAL A   9     197.984 124.398  45.540  0.00  0.00    +0.000 C 
ENDBRANCH  77 112
ENDBRANCH  74  77
ENDBRANCH  72  73
BRANCH  72 115
ATOM    115  CB  LEU A   8     200.428 125.315  41.262  0.00  0.00    +0.000 C 
BRANCH 115 116
ATOM    116  CG  LEU A   8     201.744 125.880  40.734  0.00  0.00    +0.000 C 
ATOM    117  CD2 LEU A   8     202.950 125.354  41.499  0.00  0.00    +0.000 C 
ATOM    118  CD1 LEU A   8     201.669 127.365  40.763  0.00  0.00    +0.000 C 
ENDBRANCH 115 116
ENDBRANCH  72 115
ENDBRANCH  70  72
ENDBRANCH  67  68
BRANCH  67 119
ATOM    119  CB  LYS A   7     201.043 121.841  37.313  0.00  0.00    +0.000 C 
BRANCH 119 120
ATOM    120  CG  LYS A   7     201.744 121.808  35.950  0.00  0.00    +0.000 C 
BRANCH 120 121
ATOM    121  CD  LYS A   7     201.119 122.716  34.923  0.00  0.00    +0.000 C 
BRANCH 121 122
ATOM    122  CE  LYS A   7     201.452 124.155  35.162  0.00  0.00    +0.000 C 
BRANCH 122 123
ATOM    123  NZ  LYS A   7     200.644 125.079  34.310  0.00  0.00    +0.000 N 
ATOM    124  HZ1 LYS A   7     199.634 124.945  34.517  0.00  0.00    +0.000 HD
ATOM    125  HZ2 LYS A   7     200.914 126.062  34.515  0.00  0.00    +0.000 HD
ATOM    126  HZ3 LYS A   7     200.824 124.871  33.307  0.00  0.00    +0.000 HD
ENDBRANCH 122 123
ENDBRANCH 121 122
ENDBRANCH 120 121
ENDBRANCH 119 120
ENDBRANCH  67 119
ENDBRANCH   2  67
TORSDOF 54
REMARK  Name = ../refined-set-2016/1o1s/1o1s_pocket.pdb
REMARK  277 active torsions:
REMARK  status: ('A' for Active; 'I' for Inactive)
REMARK    1  A    between atoms: _1  and  _3
REMARK    2  A    between atoms: _3  and  _4
REMARK    3  A    between atoms: _7  and  _9
REMARK    4  A    between atoms: _9  and  _10
REMARK    5  A    between atoms: _9  and  _12
REMARK    6  A    between atoms: _12  and  _13
REMARK    7  A    between atoms: _18  and  _19
REMARK    8  A    between atoms: _21  and  _23
REMARK    9  A    between atoms: _23  and  _24
REMARK   10  A    between atoms: _23  and  _26
REMARK   11  A    between atoms: _26  and  _27
REMARK   12  A    between atoms: _27  and  _28
REMARK   13  A    between atoms: _28  and  _29
REMARK   14  A    between atoms: _29  and  _30
REMARK   15  A    between atoms: _34  and  _36
REMARK   16  A    between atoms: _36  and  _37
REMARK   17  A    between atoms: _36  and  _39
REMARK   18  A    between atoms: _39  and  _40
REMARK   19  A    between atoms: _45  and  _47
REMARK   20  A    between atoms: _47  and  _48
REMARK   21  A    between atoms: _47  and  _50
REMARK   22  A    between atoms: _50  and  _51
REMARK   23  A    between atoms: _56  and  _57
REMARK   24  A    between atoms: _59  and  _61
REMARK   25  A    between atoms: _61  and  _62
REMARK   26  A    between atoms: _61  and  _64
REMARK   27  A    between atoms: _64  and  _65
REMARK   28  A    between atoms: _65  and  _66
REMARK   29  A    between atoms: _71  and  _73
REMARK   30  A    between atoms: _73  and  _74
REMARK   31  A    between atoms: _73  and  _76
REMARK   32  A    between atoms: _76  and  _77
REMARK   33  A    between atoms: _80  and  _82
REMARK   34  A    between atoms: _82  and  _83
REMARK   35  A    between atoms: _82  and  _85
REMARK   36  A    between atoms: _85  and  _86
REMARK   37  A    between atoms: _86  and  _87
REMARK   38  A    between atoms: _87  and  _88
REMARK   39  A    between atoms: _88  and  _89
REMARK   40  A    between atoms: _93  and  _95
REMARK   41  A    between atoms: _95  and  _96
REMARK   42  A    between atoms: _95  and  _98
REMARK   43  A    between atoms: _98  and  _99
REMARK   44  A    between atoms: _104  and  _106
REMARK   45  A    between atoms: _106  and  _107
REMARK   46  A    between atoms: _106  and  _109
REMARK   47  A    between atoms: _109  and  _110
REMARK   48  A    between atoms: _115  and  _116
REMARK   49  A    between atoms: _118  and  _120
REMARK   50  A    between atoms: _120  and  _121
REMARK   51  A    between atoms: _120  and  _123
REMARK   52  A    between atoms: _123  and  _124
REMARK   53  A    between atoms: _129  and  _131
REMARK   54  A    between atoms: _131  and  _132
REMARK   55  A    between atoms: _135  and  _137
REMARK   56  A    between atoms: _137  and  _138
REMARK   57  A    between atoms: _137  and  _140
REMARK   58  A    between atoms: _140  and  _141
REMARK   59  A    between atoms: _141  and  _142
REMARK   60  A    between atoms: _147  and  _149
REMARK   61  A    between atoms: _149  and  _150
REMARK   62  A    between atoms: _149  and  _152
REMARK   63  A    between atoms: _152  and  _153
REMARK   64  A    between atoms: _155  and  _157
REMARK   65  A    between atoms: _157  and  _158
REMARK   66  A    between atoms: _157  and  _160
REMARK   67  A    between atoms: _160  and  _161
REMARK   68  A    between atoms: _164  and  _166
REMARK   69  A    between atoms: _166  and  _167
REMARK   70  A    between atoms: _170  and  _172
REMARK   71  A    between atoms: _172  and  _173
REMARK   72  A    between atoms: _172  and  _175
REMARK   73  A    between atoms: _175  and  _176
REMARK   74  A    between atoms: _178  and  _180
REMARK   75  A    between atoms: _180  and  _181
REMARK   76  A    between atoms: _180  and  _183
REMARK   77  A    between atoms: _183  and  _184
REMARK   78  A    between atoms: _194  and  _196
REMARK   79  A    between atoms: _196  and  _197
REMARK   80  A    between atoms: _196  and  _199
REMARK   81  A    between atoms: _199  and  _200
REMARK   82  A    between atoms: _210  and  _212
REMARK   83  A    between atoms: _212  and  _213
REMARK   84  A    between atoms: _212  and  _215
REMARK   85  A    between atoms: _215  and  _216
REMARK   86  A    between atoms: _221  and  _223
REMARK   87  A    between atoms: _223  and  _224
REMARK   88  A    between atoms: _223  and  _226
REMARK   89  A    between atoms: _226  and  _227
REMARK   90  A    between atoms: _230  and  _232
REMARK   91  A    between atoms: _232  and  _233
REMARK   92  A    between atoms: _237  and  _238
REMARK   93  A    between atoms: _243  and  _245
REMARK   94  A    between atoms: _245  and  _246
REMARK   95  A    between atoms: _245  and  _248
REMARK   96  A    between atoms: _248  and  _249
REMARK   97  A    between atoms: _252  and  _254
REMARK   98  A    between atoms: _254  and  _255
REMARK   99  A    between atoms: _254  and  _257
REMARK  100  A    between atoms: _257  and  _258
REMARK  101  A    between atoms: _263  and  _264
REMARK  102  A    between atoms: _266  and  _268
REMARK  103  A    between atoms: _268  and  _269
REMARK  104  A    between atoms: _272  and  _274
REMARK  105  A    between atoms: _274  and  _275
REMARK  106  A    between atoms: _274  and  _277
REMARK  107  A    between atoms: _277  and  _278
REMARK  108  A    between atoms: _278  and  _279
REMARK  109  A    between atoms: _281  and  _283
REMARK  110  A    between atoms: _283  and  _284
REMARK  111  A    between atoms: _283  and  _286
REMARK  112  A    between atoms: _286  and  _287
REMARK  113  A    between atoms: _292  and  _294
REMARK  114  A    between atoms: _294  and  _295
REMARK  115  A    between atoms: _294  and  _297
REMARK  116  A    between atoms: _297  and  _298
REMARK  117  A    between atoms: _298  and  _299
REMARK  118  A    between atoms: _302  and  _304
REMARK  119  A    between atoms: _304  and  _305
REMARK  120  A    between atoms: _304  and  _307
REMARK  121  A    between atoms: _307  and  _308
REMARK  122  A    between atoms: _311  and  _313
REMARK  123  A    between atoms: _313  and  _314
REMARK  124  A    between atoms: _313  and  _316
REMARK  125  A    between atoms: _319  and  _321
REMARK  126  A    between atoms: _321  and  _322
REMARK  127  A    between atoms: _321  and  _324
REMARK  128  A    between atoms: _324  and  _325
REMARK  129  A    between atoms: _325  and  _326
REMARK  130  A    between atoms: _326  and  _327
REMARK  131  A    between atoms: _336  and  _338
REMARK  132  A    between atoms: _338  and  _339
REMARK  133  A    between atoms: _338  and  _341
REMARK  134  A    between atoms: _341  and  _342
REMARK  135  A    between atoms: _344  and  _346
REMARK  136  A    between atoms: _346  and  _347
REMARK  137  A    between atoms: _346  and  _349
REMARK  138  A    between atoms: _349  and  _350
REMARK  139  A    between atoms: _355  and  _356
REMARK  140  A    between atoms: _358  and  _360
REMARK  141  A    between atoms: _360  and  _361
REMARK  142  A    between atoms: _360  and  _363
REMARK  143  A    between atoms: _365  and  _367
REMARK  144  A    between atoms: _367  and  _368
REMARK  145  A    between atoms: _370  and  _372
REMARK  146  A    between atoms: _372  and  _373
REMARK  147  A    between atoms: _372  and  _375
REMARK  148  A    between atoms: _375  and  _376
REMARK  149  A    between atoms: _376  and  _377
REMARK  150  A    between atoms: _379  and  _381
REMARK  151  A    between atoms: _381  and  _382
REMARK  152  A    between atoms: _381  and  _384
REMARK  153  A    between atoms: _384  and  _385
REMARK  154  A    between atoms: _385  and  _386
REMARK  155  A    between atoms: _389  and  _391
REMARK  156  A    between atoms: _391  and  _392
REMARK  157  A    between atoms: _395  and  _397
REMARK  158  A    between atoms: _397  and  _398
REMARK  159  A    between atoms: _397  and  _400
REMARK  160  A    between atoms: _400  and  _401
REMARK  161  A    between atoms: _406  and  _408
REMARK  162  A    between atoms: _408  and  _409
REMARK  163  A    between atoms: _411  and  _413
REMARK  164  A    between atoms: _413  and  _414
REMARK  165  A    between atoms: _416  and  _418
REMARK  166  A    between atoms: _418  and  _419
REMARK  167  A    between atoms: _418  and  _421
REMARK  168  A    between atoms: _421  and  _422
REMARK  169  A    between atoms: _427  and  _428
REMARK  170  A    between atoms: _430  and  _432
REMARK  171  A    between atoms: _432  and  _433
REMARK  172  A    between atoms: _432  and  _435
REMARK  173  A    between atoms: _435  and  _436
REMARK  174  A    between atoms: _439  and  _441
REMARK  175  A    between atoms: _441  and  _442
REMARK  176  A    between atoms: _441  and  _444
REMARK  177  A    between atoms: _444  and  _445
REMARK  178  A    between atoms: _451  and  _453
REMARK  179  A    between atoms: _453  and  _454
REMARK  180  A    between atoms: _453  and  _456
REMARK  181  A    between atoms: _458  and  _460
REMARK  182  A    between atoms: _460  and  _461
REMARK  183  A    between atoms: _463  and  _465
REMARK  184  A    between atoms: _465  and  _466
REMARK  185  A    between atoms: _465  and  _468
REMARK  186  A    between atoms: _468  and  _469
REMARK  187  A    between atoms: _475  and  _477
REMARK  188  A    between atoms: _477  and  _478
REMARK  189  A    between atoms: _477  and  _480
REMARK  190  A    between atoms: _480  and  _481
REMARK  191  A    between atoms: _481  and  _482
REMARK  192  A    between atoms: _487  and  _489
REMARK  193  A    between atoms: _489  and  _490
REMARK  194  A    between atoms: _492  and  _494
REMARK  195  A    between atoms: _494  and  _495
REMARK  196  A    between atoms: _494  and  _497
REMARK  197  A    between atoms: _497  and  _498
REMARK  198  A    between atoms: _498  and  _499
REMARK  199  A    between atoms: _499  and  _500
REMARK  200  A    between atoms: _509  and  _511
REMARK  201  A    between atoms: _511  and  _512
REMARK  202  A    between atoms: _511  and  _514
REMARK  203  A    between atoms: _516  and  _518
REMARK  204  A    between atoms: _518  and  _519
REMARK  205  A    between atoms: _518  and  _521
REMARK  206  A    between atoms: _521  and  _522
REMARK  207  A    between atoms: _527  and  _529
REMARK  208  A    between atoms: _529  and  _530
REMARK  209  A    between atoms: _529  and  _532
REMARK  210  A    between atoms: _532  and  _533
REMARK  211  A    between atoms: _533  and  _534
REMARK  212  A    between atoms: _534  and  _535
REMARK  213  A    between atoms: _535  and  _536
REMARK  214  A    between atoms: _540  and  _542
REMARK  215  A    between atoms: _542  and  _543
REMARK  216  A    between atoms: _542  and  _545
REMARK  217  A    between atoms: _545  and  _546
REMARK  218  A    between atoms: _549  and  _551
REMARK  219  A    between atoms: _551  and  _552
REMARK  220  A    between atoms: _551  and  _554
REMARK  221  A    between atoms: _557  and  _559
REMARK  222  A    between atoms: _559  and  _560
REMARK  223  A    between atoms: _559  and  _562
REMARK  224  A    between atoms: _562  and  _563
REMARK  225  A    between atoms: _563  and  _565
REMARK  226  A    between atoms: _565  and  ZN_690
REMARK  227  A    between atoms: _566  and  _568
REMARK  228  A    between atoms: _568  and  _569
REMARK  229  A    between atoms: _568  and  _571
REMARK  230  A    between atoms: _571  and  _572
REMARK  231  A    between atoms: _572  and  ZN_690
REMARK  232  A    between atoms: _573  and  _575
REMARK  233  A    between atoms: _575  and  _576
REMARK  234  A    between atoms: _575  and  _578
REMARK  235  A    between atoms: _578  and  _579
REMARK  236  A    between atoms: _584  and  _585
REMARK  237  A    between atoms: _587  and  _589
REMARK  238  A    between atoms: _589  and  _590
REMARK  239  A    between atoms: _589  and  _592
REMARK  240  A    between atoms: _592  and  _593
REMARK  241  A    between atoms: _599  and  _601
REMARK  242  A    between atoms: _601  and  _602
REMARK  243  A    between atoms: _601  and  _604
REMARK  244  A    between atoms: _604  and  _605
REMARK  245  A    between atoms: _615  and  _617
REMARK  246  A    between atoms: _617  and  _618
REMARK  247  A    between atoms: _617  and  _620
REMARK  248  A    between atoms: _620  and  _621
REMARK  249  A    between atoms: _621  and  _622
REMARK  250  A    between atoms: _627  and  _629
REMARK  251  A    between atoms: _629  and  _630
REMARK  252  A    between atoms: _629  and  _632
REMARK  253  A    between atoms: _632  and  _633
REMARK  254  A    between atoms: _636  and  _638
REMARK  255  A    between atoms: _638  and  _639
REMARK  256  A    between atoms: _638  and  _641
REMARK  257  A    between atoms: _641  and  _642
REMARK  258  A    between atoms: _642  and  _643
REMARK  259  A    between atoms: _643  and  _644
REMARK  260  A    between atoms: _644  and  _645
REMARK  261  A    between atoms: _649  and  _651
REMARK  262  A    between atoms: _651  and  _652
REMARK  263  A    between atoms: _651  and  _654
REMARK  264  A    between atoms: _654  and  _655
REMARK  265  A    between atoms: _655  and  _656
REMARK  266  A    between atoms: _656  and  _657
REMARK  267  A    between atoms: _657  and  _658
REMARK  268  A    between atoms: _662  and  _664
REMARK  269  A    between atoms: _664  and  _665
REMARK  270  A    between atoms: _664  and  _667
REMARK  271  A    between atoms: _667  and  _668
REMARK  272  A    between atoms: _673  and  _674
REMARK  273  A    between atoms: _676  and  _678
REMARK  274  A    between atoms: _678  and  _679
REMARK  275  A    between atoms: _678  and  _681
REMARK  276  A    between atoms: _681  and  _682
REMARK  277  A    between atoms: _687  and  _688
REMARK                            x       y       z     vdW  Elec       q    Type
REMARK                         _______ _______ _______ _____ _____    ______ ____
ROOT
ATOM      1  CA  TRP A   2     187.707 117.331  38.873  0.00  0.00    +0.153 C 
ENDROOT
BRANCH   1   4
ATOM      2  C   PHE A   1     186.623 117.537  41.040  0.00  0.00    +0.239 C 
ATOM      3  O   PHE A   1     186.322 116.339  41.028  0.00  0.00    -0.274 OA
ATOM      4  N   TRP A   2     187.285 118.111  40.033  0.00  0.00    -0.297 N 
ATOM      5  H   TRP A   2     187.503 119.127  40.075  0.00  0.00    +0.150 HD
BRANCH   2   6
ATOM      6  CA  PHE A   1     186.187 118.435  42.219  0.00  0.00    +0.149 C 
BRANCH   6   7
ATOM      7  N   PHE A   1     187.256 119.170  42.900  0.00  0.00    -0.238 NA
ATOM      8  H   PHE A   1     187.598 120.061  42.487  0.00  0.00    +0.142 HD
ENDBRANCH   6   7
BRANCH   6   9
ATOM      9  CB  PHE A   1     185.046 119.312  41.718  0.00  0.00    +0.053 C 
BRANCH   9  10
ATOM     10  CG  PHE A   1     183.987 118.504  41.037  0.00  0.00    -0.020 A 
ATOM     11  CD2 PHE A   1     183.144 117.682  41.787  0.00  0.00    -0.004 A 
ATOM     12  CE2 PHE A   1     182.270 116.793  41.158  0.00  0.00    -0.000 A 
ATOM     13  CZ  PHE A   1     182.235 116.723  39.771  0.00  0.00    -0.000 A 
ATOM     14  CE1 PHE A   1     183.066 117.543  39.017  0.00  0.00    -0.000 A 
ATOM     15  CD1 PHE A   1     183.929 118.428  39.648  0.00  0.00    -0.004 A 
ENDBRANCH   9  10
ENDBRANCH   6   9
ENDBRANCH   2   6
ENDBRANCH   1   4
BRANCH   1  16
ATOM     16  C   TRP A   2     188.581 116.150  39.232  0.00  0.00    +0.241 C 
ATOM     17  N   GLN A   3     189.487 116.325  40.189  0.00  0.00    -0.298 N 
ATOM     18  H   GLN A   3     189.571 117.250  40.657  0.00  0.00    +0.150 HD
ATOM     19  O   TRP A   2     188.456 115.093  38.630  0.00  0.00    -0.273 OA
BRANCH  17  20
ATOM     20  CA  GLN A   3     190.369 115.224  40.590  0.00  0.00    +0.137 C 
BRANCH  20  21
ATOM     21  C   GLN A   3     189.738 114.363  41.705  0.00  0.00    +0.227 C 
ATOM     22  O   GLN A   3     189.595 113.143  41.555  0.00  0.00    -0.286 OA
ENDBRANCH  20  21
BRANCH  20  23
ATOM     23  CB  GLN A   3     191.742 115.742  41.041  0.00  0.00    +0.037 C 
BRANCH  23  24
ATOM     24  CG  GLN A   3     192.533 116.519  39.977  0.00  0.00    +0.087 C 
BRANCH  24  25
ATOM     25  CD  GLN A   3     193.290 115.629  39.017  0.00  0.00    +0.219 C 
ATOM     26  OE1 GLN A   3     192.816 114.560  38.643  0.00  0.00    -0.275 OA
ATOM     27  NE2 GLN A   3     194.476 116.078  38.594  0.00  0.00    -0.329 N 
ATOM     28 HE21 GLN A   3     194.839 116.990  38.937  0.00  0.00    +0.145 HD
ATOM     29 HE22 GLN A   3     195.035 115.515  37.922  0.00  0.00    +0.145 HD
ENDBRANCH  24  25
ENDBRANCH  23  24
ENDBRANCH  20  23
ENDBRANCH  17  20
ENDBRANCH   1  16
BRANCH   1  30
ATOM     30  CB  TRP A   2     188.427 118.200  37.862  0.00  0.00    +0.057 C 
BRANCH  30  31
ATOM     31  CG  TRP A   2     187.680 119.419  37.465  0.00  0.00    -0.002 A 
ATOM     32  CD1 TRP A   2     188.113 120.705  37.596  0.00  0.00    +0.068 A 
ATOM     33  NE1 TRP A   2     187.197 121.571  37.049  0.00  0.00    -0.352 N 
ATOM     34  HE1 TRP A   2     187.293 122.606  37.014  0.00  0.00    +0.166 HD
ATOM     35  CE2 TRP A   2     186.140 120.857  36.558  0.00  0.00    +0.056 A 
ATOM     36  CZ2 TRP A   2     184.984 121.299  35.912  0.00  0.00    +0.017 A 
ATOM     37  CH2 TRP A   2     184.083 120.353  35.515  0.00  0.00    +0.001 A 
ATOM     38  CZ3 TRP A   2     184.311 118.984  35.747  0.00  0.00    +0.000 A 
ATOM     39  CE3 TRP A   2     185.472 118.542  36.395  0.00  0.00    +0.001 A 
ATOM     40  CD2 TRP A   2     186.405 119.492  36.807  0.00  0.00    +0.013 A 
ENDBRANCH  30  31
ENDBRANCH   1  30
TORSDOF 13
REMARK  Name = ../refined-set-2016/1o1s/1o1s_pocket.pdb
REMARK  277 active torsions:
REMARK  status: ('A' for Active; 'I' for Inactive)
REMARK    1  A    between atoms: _1  and  _3
REMARK    2  A    between atoms: _3  and  _4
REMARK    3  A    between atoms: _7  and  _9
REMARK    4  A    between atoms: _9  and  _10
REMARK    5  A    between atoms: _9  and  _12
REMARK    6  A    between atoms: _12  and  _13
REMARK    7  A    between atoms: _18  and  _19
REMARK    8  A    between atoms: _21  and  _23
REMARK    9  A    between atoms: _23  and  _24
REMARK   10  A    between atoms: _23  and  _26
REMARK   11  A    between atoms: _26  and  _27
REMARK   12  A    between atoms: _27  and  _28
REMARK   13  A    between atoms: _28  and  _29
REMARK   14  A    between atoms: _29  and  _30
REMARK   15  A    between atoms: _34  and  _36
REMARK   16  A    between atoms: _36  and  _37
REMARK   17  A    between atoms: _36  and  _39
REMARK   18  A    between atoms: _39  and  _40
REMARK   19  A    between atoms: _45  and  _47
REMARK   20  A    between atoms: _47  and  _48
REMARK   21  A    between atoms: _47  and  _50
REMARK   22  A    between atoms: _50  and  _51
REMARK   23  A    between atoms: _56  and  _57
REMARK   24  A    between atoms: _59  and  _61
REMARK   25  A    between atoms: _61  and  _62
REMARK   26  A    between atoms: _61  and  _64
REMARK   27  A    between atoms: _64  and  _65
REMARK   28  A    between atoms: _65  and  _66
REMARK   29  A    between atoms: _71  and  _73
REMARK   30  A    between atoms: _73  and  _74
REMARK   31  A    between atoms: _73  and  _76
REMARK   32  A    between atoms: _76  and  _77
REMARK   33  A    between atoms: _80  and  _82
REMARK   34  A    between atoms: _82  and  _83
REMARK   35  A    between atoms: _82  and  _85
REMARK   36  A    between atoms: _85  and  _86
REMARK   37  A    between atoms: _86  and  _87
REMARK   38  A    between atoms: _87  and  _88
REMARK   39  A    between atoms: _88  and  _89
REMARK   40  A    between atoms: _93  and  _95
REMARK   41  A    between atoms: _95  and  _96
REMARK   42  A    between atoms: _95  and  _98
REMARK   43  A    between atoms: _98  and  _99
REMARK   44  A    between atoms: _104  and  _106
REMARK   45  A    between atoms: _106  and  _107
REMARK   46  A    between atoms: _106  and  _109
REMARK   47  A    between atoms: _109  and  _110
REMARK   48  A    between atoms: _115  and  _116
REMARK   49  A    between atoms: _118  and  _120
REMARK   50  A    between atoms: _120  and  _121
REMARK   51  A    between atoms: _120  and  _123
REMARK   52  A    between atoms: _123  and  _124
REMARK   53  A    between atoms: _129  and  _131
REMARK   54  A    between atoms: _131  and  _132
REMARK   55  A    between atoms: _135  and  _137
REMARK   56  A    between atoms: _137  and  _138
REMARK   57  A    between atoms: _137  and  _140
REMARK   58  A    between atoms: _140  and  _141
REMARK   59  A    between atoms: _141  and  _142
REMARK   60  A    between atoms: _147  and  _149
REMARK   61  A    between atoms: _149  and  _150
REMARK   62  A    between atoms: _149  and  _152
REMARK   63  A    between atoms: _152  and  _153
REMARK   64  A    between atoms: _155  and  _157
REMARK   65  A    between atoms: _157  and  _158
REMARK   66  A    between atoms: _157  and  _160
REMARK   67  A    between atoms: _160  and  _161
REMARK   68  A    between atoms: _164  and  _166
REMARK   69  A    between atoms: _166  and  _167
REMARK   70  A    between atoms: _170  and  _172
REMARK   71  A    between atoms: _172  and  _173
REMARK   72  A    between atoms: _172  and  _175
REMARK   73  A    between atoms: _175  and  _176
REMARK   74  A    between atoms: _178  and  _180
REMARK   75  A    between atoms: _180  and  _181
REMARK   76  A    between atoms: _180  and  _183
REMARK   77  A    between atoms: _183  and  _184
REMARK   78  A    between atoms: _194  and  _196
REMARK   79  A    between atoms: _196  and  _197
REMARK   80  A    between atoms: _196  and  _199
REMARK   81  A    between atoms: _199  and  _200
REMARK   82  A    between atoms: _210  and  _212
REMARK   83  A    between atoms: _212  and  _213
REMARK   84  A    between atoms: _212  and  _215
REMARK   85  A    between atoms: _215  and  _216
REMARK   86  A    between atoms: _221  and  _223
REMARK   87  A    between atoms: _223  and  _224
REMARK   88  A    between atoms: _223  and  _226
REMARK   89  A    between atoms: _226  and  _227
REMARK   90  A    between atoms: _230  and  _232
REMARK   91  A    between atoms: _232  and  _233
REMARK   92  A    between atoms: _237  and  _238
REMARK   93  A    between atoms: _243  and  _245
REMARK   94  A    between atoms: _245  and  _246
REMARK   95  A    between atoms: _245  and  _248
REMARK   96  A    between atoms: _248  and  _249
REMARK   97  A    between atoms: _252  and  _254
REMARK   98  A    between atoms: _254  and  _255
REMARK   99  A    between atoms: _254  and  _257
REMARK  100  A    between atoms: _257  and  _258
REMARK  101  A    between atoms: _263  and  _264
REMARK  102  A    between atoms: _266  and  _268
REMARK  103  A    between atoms: _268  and  _269
REMARK  104  A    between atoms: _272  and  _274
REMARK  105  A    between atoms: _274  and  _275
REMARK  106  A    between atoms: _274  and  _277
REMARK  107  A    between atoms: _277  and  _278
REMARK  108  A    between atoms: _278  and  _279
REMARK  109  A    between atoms: _281  and  _283
REMARK  110  A    between atoms: _283  and  _284
REMARK  111  A    between atoms: _283  and  _286
REMARK  112  A    between atoms: _286  and  _287
REMARK  113  A    between atoms: _292  and  _294
REMARK  114  A    between atoms: _294  and  _295
REMARK  115  A    between atoms: _294  and  _297
REMARK  116  A    between atoms: _297  and  _298
REMARK  117  A    between atoms: _298  and  _299
REMARK  118  A    between atoms: _302  and  _304
REMARK  119  A    between atoms: _304  and  _305
REMARK  120  A    between atoms: _304  and  _307
REMARK  121  A    between atoms: _307  and  _308
REMARK  122  A    between atoms: _311  and  _313
REMARK  123  A    between atoms: _313  and  _314
REMARK  124  A    between atoms: _313  and  _316
REMARK  125  A    between atoms: _319  and  _321
REMARK  126  A    between atoms: _321  and  _322
REMARK  127  A    between atoms: _321  and  _324
REMARK  128  A    between atoms: _324  and  _325
REMARK  129  A    between atoms: _325  and  _326
REMARK  130  A    between atoms: _326  and  _327
REMARK  131  A    between atoms: _336  and  _338
REMARK  132  A    between atoms: _338  and  _339
REMARK  133  A    between atoms: _338  and  _341
REMARK  134  A    between atoms: _341  and  _342
REMARK  135  A    between atoms: _344  and  _346
REMARK  136  A    between atoms: _346  and  _347
REMARK  137  A    between atoms: _346  and  _349
REMARK  138  A    between atoms: _349  and  _350
REMARK  139  A    between atoms: _355  and  _356
REMARK  140  A    between atoms: _358  and  _360
REMARK  141  A    between atoms: _360  and  _361
REMARK  142  A    between atoms: _360  and  _363
REMARK  143  A    between atoms: _365  and  _367
REMARK  144  A    between atoms: _367  and  _368
REMARK  145  A    between atoms: _370  and  _372
REMARK  146  A    between atoms: _372  and  _373
REMARK  147  A    between atoms: _372  and  _375
REMARK  148  A    between atoms: _375  and  _376
REMARK  149  A    between atoms: _376  and  _377
REMARK  150  A    between atoms: _379  and  _381
REMARK  151  A    between atoms: _381  and  _382
REMARK  152  A    between atoms: _381  and  _384
REMARK  153  A    between atoms: _384  and  _385
REMARK  154  A    between atoms: _385  and  _386
REMARK  155  A    between atoms: _389  and  _391
REMARK  156  A    between atoms: _391  and  _392
REMARK  157  A    between atoms: _395  and  _397
REMARK  158  A    between atoms: _397  and  _398
REMARK  159  A    between atoms: _397  and  _400
REMARK  160  A    between atoms: _400  and  _401
REMARK  161  A    between atoms: _406  and  _408
REMARK  162  A    between atoms: _408  and  _409
REMARK  163  A    between atoms: _411  and  _413
REMARK  164  A    between atoms: _413  and  _414
REMARK  165  A    between atoms: _416  and  _418
REMARK  166  A    between atoms: _418  and  _419
REMARK  167  A    between atoms: _418  and  _421
REMARK  168  A    between atoms: _421  and  _422
REMARK  169  A    between atoms: _427  and  _428
REMARK  170  A    between atoms: _430  and  _432
REMARK  171  A    between atoms: _432  and  _433
REMARK  172  A    between atoms: _432  and  _435
REMARK  173  A    between atoms: _435  and  _436
REMARK  174  A    between atoms: _439  and  _441
REMARK  175  A    between atoms: _441  and  _442
REMARK  176  A    between atoms: _441  and  _444
REMARK  177  A    between atoms: _444  and  _445
REMARK  178  A    between atoms: _451  and  _453
REMARK  179  A    between atoms: _453  and  _454
REMARK  180  A    between atoms: _453  and  _456
REMARK  181  A    between atoms: _458  and  _460
REMARK  182  A    between atoms: _460  and  _461
REMARK  183  A    between atoms: _463  and  _465
REMARK  184  A    between atoms: _465  and  _466
REMARK  185  A    between atoms: _465  and  _468
REMARK  186  A    between atoms: _468  and  _469
REMARK  187  A    between atoms: _475  and  _477
REMARK  188  A    between atoms: _477  and  _478
REMARK  189  A    between atoms: _477  and  _480
REMARK  190  A    between atoms: _480  and  _481
REMARK  191  A    between atoms: _481  and  _482
REMARK  192  A    between atoms: _487  and  _489
REMARK  193  A    between atoms: _489  and  _490
REMARK  194  A    between atoms: _492  and  _494
REMARK  195  A    between atoms: _494  and  _495
REMARK  196  A    between atoms: _494  and  _497
REMARK  197  A    between atoms: _497  and  _498
REMARK  198  A    between atoms: _498  and  _499
REMARK  199  A    between atoms: _499  and  _500
REMARK  200  A    between atoms: _509  and  _511
REMARK  201  A    between atoms: _511  and  _512
REMARK  202  A    between atoms: _511  and  _514
REMARK  203  A    between atoms: _516  and  _518
REMARK  204  A    between atoms: _518  and  _519
REMARK  205  A    between atoms: _518  and  _521
REMARK  206  A    between atoms: _521  and  _522
REMARK  207  A    between atoms: _527  and  _529
REMARK  208  A    between atoms: _529  and  _530
REMARK  209  A    between atoms: _529  and  _532
REMARK  210  A    between atoms: _532  and  _533
REMARK  211  A    between atoms: _533  and  _534
REMARK  212  A    between atoms: _534  and  _535
REMARK  213  A    between atoms: _535  and  _536
REMARK  214  A    between atoms: _540  and  _542
REMARK  215  A    between atoms: _542  and  _543
REMARK  216  A    between atoms: _542  and  _545
REMARK  217  A    between atoms: _545  and  _546
REMARK  218  A    between atoms: _549  and  _551
REMARK  219  A    between atoms: _551  and  _552
REMARK  220  A    between atoms: _551  and  _554
REMARK  221  A    between atoms: _557  and  _559
REMARK  222  A    between atoms: _559  and  _560
REMARK  223  A    between atoms: _559  and  _562
REMARK  224  A    between atoms: _562  and  _563
REMARK  225  A    between atoms: _563  and  _565
REMARK  226  A    between atoms: _565  and  ZN_690
REMARK  227  A    between atoms: _566  and  _568
REMARK  228  A    between atoms: _568  and  _569
REMARK  229  A    between atoms: _568  and  _571
REMARK  230  A    between atoms: _571  and  _572
REMARK  231  A    between atoms: _572  and  ZN_690
REMARK  232  A    between atoms: _573  and  _575
REMARK  233  A    between atoms: _575  and  _576
REMARK  234  A    between atoms: _575  and  _578
REMARK  235  A    between atoms: _578  and  _579
REMARK  236  A    between atoms: _584  and  _585
REMARK  237  A    between atoms: _587  and  _589
REMARK  238  A    between atoms: _589  and  _590
REMARK  239  A    between atoms: _589  and  _592
REMARK  240  A    between atoms: _592  and  _593
REMARK  241  A    between atoms: _599  and  _601
REMARK  242  A    between atoms: _601  and  _602
REMARK  243  A    between atoms: _601  and  _604
REMARK  244  A    between atoms: _604  and  _605
REMARK  245  A    between atoms: _615  and  _617
REMARK  246  A    between atoms: _617  and  _618
REMARK  247  A    between atoms: _617  and  _620
REMARK  248  A    between atoms: _620  and  _621
REMARK  249  A    between atoms: _621  and  _622
REMARK  250  A    between atoms: _627  and  _629
REMARK  251  A    between atoms: _629  and  _630
REMARK  252  A    between atoms: _629  and  _632
REMARK  253  A    between atoms: _632  and  _633
REMARK  254  A    between atoms: _636  and  _638
REMARK  255  A    between atoms: _638  and  _639
REMARK  256  A    between atoms: _638  and  _641
REMARK  257  A    between atoms: _641  and  _642
REMARK  258  A    between atoms: _642  and  _643
REMARK  259  A    between atoms: _643  and  _644
REMARK  260  A    between atoms: _644  and  _645
REMARK  261  A    between atoms: _649  and  _651
REMARK  262  A    between atoms: _651  and  _652
REMARK  263  A    between atoms: _651  and  _654
REMARK  264  A    between atoms: _654  and  _655
REMARK  265  A    between atoms: _655  and  _656
REMARK  266  A    between atoms: _656  and  _657
REMARK  267  A    between atoms: _657  and  _658
REMARK  268  A    between atoms: _662  and  _664
REMARK  269  A    between atoms: _664  and  _665
REMARK  270  A    between atoms: _664  and  _667
REMARK  271  A    between atoms: _667  and  _668
REMARK  272  A    between atoms: _673  and  _674
REMARK  273  A    between atoms: _676  and  _678
REMARK  274  A    between atoms: _678  and  _679
REMARK  275  A    between atoms: _678  and  _681
REMARK  276  A    between atoms: _681  and  _682
REMARK  277  A    between atoms: _687  and  _688
REMARK                            x       y       z     vdW  Elec       q    Type
REMARK                         _______ _______ _______ _____ _____    ______ ____
ROOT
ATOM      1  C   ASP A   1     193.064 128.527  44.418  0.00  0.00    +0.239 C 
ATOM      2  O   ASP A   1     193.114 127.419  44.919  0.00  0.00    -0.274 OA
ATOM      3  N   LYS A   2     193.824 129.526  44.836  0.00  0.00    -0.298 N 
ATOM      4  H   LYS A   2     193.757 130.451  44.365  0.00  0.00    +0.150 HD
ENDROOT
BRANCH   1   5
ATOM      5  CA  ASP A   1     192.138 128.810  43.243  0.00  0.00    +0.156 C 
BRANCH   5   6
ATOM      6  N   ASP A   1     191.050 129.668  43.682  0.00  0.00    -0.238 NA
ATOM      7  H   ASP A   1     190.926 130.571  43.181  0.00  0.00    +0.142 HD
ENDBRANCH   5   6
BRANCH   5   8
ATOM      8  CB  ASP A   1     192.866 129.542  42.099  0.00  0.00    +0.140 C 
BRANCH   8   9
ATOM      9  CG  ASP A   1     194.151 128.858  41.636  0.00  0.00    +0.367 C 
ATOM     10  OD2 ASP A   1     194.664 127.917  42.263  0.00  0.00    -0.246 OA
ATOM     11  OD1 ASP A   1     194.694 129.309  40.618  0.00  0.00    -0.246 OA
ENDBRANCH   8   9
ENDBRANCH   5   8
ENDBRANCH   1   5
BRANCH   3  12
ATOM     12  CA  LYS A   2     194.752 129.354  45.943  0.00  0.00    +0.137 C 
BRANCH  12  13
ATOM     13  C   LYS A   2     194.881 130.728  46.578  0.00  0.00    +0.227 C 
ATOM     14  O   LYS A   2     194.353 131.705  46.049  0.00  0.00    -0.286 OA
ENDBRANCH  12  13
BRANCH  12  15
ATOM     15  CB  LYS A   2     196.118 128.840  45.432  0.00  0.00    +0.028 C 
BRANCH  15  16
ATOM     16  CG  LYS A   2     196.777 129.749  44.401  0.00  0.00    -0.000 C 
BRANCH  16  17
ATOM     17  CD  LYS A   2     198.180 129.296  44.075  0.00  0.00    -0.024 C 
BRANCH  17  18
ATOM     18  CE  LYS A   2     198.216 127.943  43.394  0.00  0.00    -0.086 C 
BRANCH  18  19
ATOM     19  NZ  LYS A   2     197.377 127.930  42.161  0.00  0.00    +0.380 N 
ATOM     20  HZ1 LYS A   2     196.391 128.147  42.412  0.00  0.00    -0.089 HD
ATOM     21  HZ2 LYS A   2     197.425 126.989  41.721  0.00  0.00    -0.089 HD
ATOM     22  HZ3 LYS A   2     197.732 128.645  41.494  0.00  0.00    -0.089 HD
ENDBRANCH  18  19
ENDBRANCH  17  18
ENDBRANCH  16  17
ENDBRANCH  15  16
ENDBRANCH  12  15
ENDBRANCH   3  12
TORSDOF 11
REMARK  Name = ../refined-set-2016/1o1s/1o1s_pocket.pdb
REMARK  277 active torsions:
REMARK  status: ('A' for Active; 'I' for Inactive)
REMARK    1  A    between atoms: _1  and  _3
REMARK    2  A    between atoms: _3  and  _4
REMARK    3  A    between atoms: _7  and  _9
REMARK    4  A    between atoms: _9  and  _10
REMARK    5  A    between atoms: _9  and  _12
REMARK    6  A    between atoms: _12  and  _13
REMARK    7  A    between atoms: _18  and  _19
REMARK    8  A    between atoms: _21  and  _23
REMARK    9  A    between atoms: _23  and  _24
REMARK   10  A    between atoms: _23  and  _26
REMARK   11  A    between atoms: _26  and  _27
REMARK   12  A    between atoms: _27  and  _28
REMARK   13  A    between atoms: _28  and  _29
REMARK   14  A    between atoms: _29  and  _30
REMARK   15  A    between atoms: _34  and  _36
REMARK   16  A    between atoms: _36  and  _37
REMARK   17  A    between atoms: _36  and  _39
REMARK   18  A    between atoms: _39  and  _40
REMARK   19  A    between atoms: _45  and  _47
REMARK   20  A    between atoms: _47  and  _48
REMARK   21  A    between atoms: _47  and  _50
REMARK   22  A    between atoms: _50  and  _51
REMARK   23  A    between atoms: _56  and  _57
REMARK   24  A    between atoms: _59  and  _61
REMARK   25  A    between atoms: _61  and  _62
REMARK   26  A    between atoms: _61  and  _64
REMARK   27  A    between atoms: _64  and  _65
REMARK   28  A    between atoms: _65  and  _66
REMARK   29  A    between atoms: _71  and  _73
REMARK   30  A    between atoms: _73  and  _74
REMARK   31  A    between atoms: _73  and  _76
REMARK   32  A    between atoms: _76  and  _77
REMARK   33  A    between atoms: _80  and  _82
REMARK   34  A    between atoms: _82  and  _83
REMARK   35  A    between atoms: _82  and  _85
REMARK   36  A    between atoms: _85  and  _86
REMARK   37  A    between atoms: _86  and  _87
REMARK   38  A    between atoms: _87  and  _88
REMARK   39  A    between atoms: _88  and  _89
REMARK   40  A    between atoms: _93  and  _95
REMARK   41  A    between atoms: _95  and  _96
REMARK   42  A    between atoms: _95  and  _98
REMARK   43  A    between atoms: _98  and  _99
REMARK   44  A    between atoms: _104  and  _106
REMARK   45  A    between atoms: _106  and  _107
REMARK   46  A    between atoms: _106  and  _109
REMARK   47  A    between atoms: _109  and  _110
REMARK   48  A    between atoms: _115  and  _116
REMARK   49  A    between atoms: _118  and  _120
REMARK   50  A    between atoms: _120  and  _121
REMARK   51  A    between atoms: _120  and  _123
REMARK   52  A    between atoms: _123  and  _124
REMARK   53  A    between atoms: _129  and  _131
REMARK   54  A    between atoms: _131  and  _132
REMARK   55  A    between atoms: _135  and  _137
REMARK   56  A    between atoms: _137  and  _138
REMARK   57  A    between atoms: _137  and  _140
REMARK   58  A    between atoms: _140  and  _141
REMARK   59  A    between atoms: _141  and  _142
REMARK   60  A    between atoms: _147  and  _149
REMARK   61  A    between atoms: _149  and  _150
REMARK   62  A    between atoms: _149  and  _152
REMARK   63  A    between atoms: _152  and  _153
REMARK   64  A    between atoms: _155  and  _157
REMARK   65  A    between atoms: _157  and  _158
REMARK   66  A    between atoms: _157  and  _160
REMARK   67  A    between atoms: _160  and  _161
REMARK   68  A    between atoms: _164  and  _166
REMARK   69  A    between atoms: _166  and  _167
REMARK   70  A    between atoms: _170  and  _172
REMARK   71  A    between atoms: _172  and  _173
REMARK   72  A    between atoms: _172  and  _175
REMARK   73  A    between atoms: _175  and  _176
REMARK   74  A    between atoms: _178  and  _180
REMARK   75  A    between atoms: _180  and  _181
REMARK   76  A    between atoms: _180  and  _183
REMARK   77  A    between atoms: _183  and  _184
REMARK   78  A    between atoms: _194  and  _196
REMARK   79  A    between atoms: _196  and  _197
REMARK   80  A    between atoms: _196  and  _199
REMARK   81  A    between atoms: _199  and  _200
REMARK   82  A    between atoms: _210  and  _212
REMARK   83  A    between atoms: _212  and  _213
REMARK   84  A    between atoms: _212  and  _215
REMARK   85  A    between atoms: _215  and  _216
REMARK   86  A    between atoms: _221  and  _223
REMARK   87  A    between atoms: _223  and  _224
REMARK   88  A    between atoms: _223  and  _226
REMARK   89  A    between atoms: _226  and  _227
REMARK   90  A    between atoms: _230  and  _232
REMARK   91  A    between atoms: _232  and  _233
REMARK   92  A    between atoms: _237  and  _238
REMARK   93  A    between atoms: _243  and  _245
REMARK   94  A    between atoms: _245  and  _246
REMARK   95  A    between atoms: _245  and  _248
REMARK   96  A    between atoms: _248  and  _249
REMARK   97  A    between atoms: _252  and  _254
REMARK   98  A    between atoms: _254  and  _255
REMARK   99  A    between atoms: _254  and  _257
REMARK  100  A    between atoms: _257  and  _258
REMARK  101  A    between atoms: _263  and  _264
REMARK  102  A    between atoms: _266  and  _268
REMARK  103  A    between atoms: _268  and  _269
REMARK  104  A    between atoms: _272  and  _274
REMARK  105  A    between atoms: _274  and  _275
REMARK  106  A    between atoms: _274  and  _277
REMARK  107  A    between atoms: _277  and  _278
REMARK  108  A    between atoms: _278  and  _279
REMARK  109  A    between atoms: _281  and  _283
REMARK  110  A    between atoms: _283  and  _284
REMARK  111  A    between atoms: _283  and  _286
REMARK  112  A    between atoms: _286  and  _287
REMARK  113  A    between atoms: _292  and  _294
REMARK  114  A    between atoms: _294  and  _295
REMARK  115  A    between atoms: _294  and  _297
REMARK  116  A    between atoms: _297  and  _298
REMARK  117  A    between atoms: _298  and  _299
REMARK  118  A    between atoms: _302  and  _304
REMARK  119  A    between atoms: _304  and  _305
REMARK  120  A    between atoms: _304  and  _307
REMARK  121  A    between atoms: _307  and  _308
REMARK  122  A    between atoms: _311  and  _313
REMARK  123  A    between atoms: _313  and  _314
REMARK  124  A    between atoms: _313  and  _316
REMARK  125  A    between atoms: _319  and  _321
REMARK  126  A    between atoms: _321  and  _322
REMARK  127  A    between atoms: _321  and  _324
REMARK  128  A    between atoms: _324  and  _325
REMARK  129  A    between atoms: _325  and  _326
REMARK  130  A    between atoms: _326  and  _327
REMARK  131  A    between atoms: _336  and  _338
REMARK  132  A    between atoms: _338  and  _339
REMARK  133  A    between atoms: _338  and  _341
REMARK  134  A    between atoms: _341  and  _342
REMARK  135  A    between atoms: _344  and  _346
REMARK  136  A    between atoms: _346  and  _347
REMARK  137  A    between atoms: _346  and  _349
REMARK  138  A    between atoms: _349  and  _350
REMARK  139  A    between atoms: _355  and  _356
REMARK  140  A    between atoms: _358  and  _360
REMARK  141  A    between atoms: _360  and  _361
REMARK  142  A    between atoms: _360  and  _363
REMARK  143  A    between atoms: _365  and  _367
REMARK  144  A    between atoms: _367  and  _368
REMARK  145  A    between atoms: _370  and  _372
REMARK  146  A    between atoms: _372  and  _373
REMARK  147  A    between atoms: _372  and  _375
REMARK  148  A    between atoms: _375  and  _376
REMARK  149  A    between atoms: _376  and  _377
REMARK  150  A    between atoms: _379  and  _381
REMARK  151  A    between atoms: _381  and  _382
REMARK  152  A    between atoms: _381  and  _384
REMARK  153  A    between atoms: _384  and  _385
REMARK  154  A    between atoms: _385  and  _386
REMARK  155  A    between atoms: _389  and  _391
REMARK  156  A    between atoms: _391  and  _392
REMARK  157  A    between atoms: _395  and  _397
REMARK  158  A    between atoms: _397  and  _398
REMARK  159  A    between atoms: _397  and  _400
REMARK  160  A    between atoms: _400  and  _401
REMARK  161  A    between atoms: _406  and  _408
REMARK  162  A    between atoms: _408  and  _409
REMARK  163  A    between atoms: _411  and  _413
REMARK  164  A    between atoms: _413  and  _414
REMARK  165  A    between atoms: _416  and  _418
REMARK  166  A    between atoms: _418  and  _419
REMARK  167  A    between atoms: _418  and  _421
REMARK  168  A    between atoms: _421  and  _422
REMARK  169  A    between atoms: _427  and  _428
REMARK  170  A    between atoms: _430  and  _432
REMARK  171  A    between atoms: _432  and  _433
REMARK  172  A    between atoms: _432  and  _435
REMARK  173  A    between atoms: _435  and  _436
REMARK  174  A    between atoms: _439  and  _441
REMARK  175  A    between atoms: _441  and  _442
REMARK  176  A    between atoms: _441  and  _444
REMARK  177  A    between atoms: _444  and  _445
REMARK  178  A    between atoms: _451  and  _453
REMARK  179  A    between atoms: _453  and  _454
REMARK  180  A    between atoms: _453  and  _456
REMARK  181  A    between atoms: _458  and  _460
REMARK  182  A    between atoms: _460  and  _461
REMARK  183  A    between atoms: _463  and  _465
REMARK  184  A    between atoms: _465  and  _466
REMARK  185  A    between atoms: _465  and  _468
REMARK  186  A    between atoms: _468  and  _469
REMARK  187  A    between atoms: _475  and  _477
REMARK  188  A    between atoms: _477  and  _478
REMARK  189  A    between atoms: _477  and  _480
REMARK  190  A    between atoms: _480  and  _481
REMARK  191  A    between atoms: _481  and  _482
REMARK  192  A    between atoms: _487  and  _489
REMARK  193  A    between atoms: _489  and  _490
REMARK  194  A    between atoms: _492  and  _494
REMARK  195  A    between atoms: _494  and  _495
REMARK  196  A    between atoms: _494  and  _497
REMARK  197  A    between atoms: _497  and  _498
REMARK  198  A    between atoms: _498  and  _499
REMARK  199  A    between atoms: _499  and  _500
REMARK  200  A    between atoms: _509  and  _511
REMARK  201  A    between atoms: _511  and  _512
REMARK  202  A    between atoms: _511  and  _514
REMARK  203  A    between atoms: _516  and  _518
REMARK  204  A    between atoms: _518  and  _519
REMARK  205  A    between atoms: _518  and  _521
REMARK  206  A    between atoms: _521  and  _522
REMARK  207  A    between atoms: _527  and  _529
REMARK  208  A    between atoms: _529  and  _530
REMARK  209  A    between atoms: _529  and  _532
REMARK  210  A    between atoms: _532  and  _533
REMARK  211  A    between atoms: _533  and  _534
REMARK  212  A    between atoms: _534  and  _535
REMARK  213  A    between atoms: _535  and  _536
REMARK  214  A    between atoms: _540  and  _542
REMARK  215  A    between atoms: _542  and  _543
REMARK  216  A    between atoms: _542  and  _545
REMARK  217  A    between atoms: _545  and  _546
REMARK  218  A    between atoms: _549  and  _551
REMARK  219  A    between atoms: _551  and  _552
REMARK  220  A    between atoms: _551  and  _554
REMARK  221  A    between atoms: _557  and  _559
REMARK  222  A    between atoms: _559  and  _560
REMARK  223  A    between atoms: _559  and  _562
REMARK  224  A    between atoms: _562  and  _563
REMARK  225  A    between atoms: _563  and  _565
REMARK  226  A    between atoms: _565  and  ZN_690
REMARK  227  A    between atoms: _566  and  _568
REMARK  228  A    between atoms: _568  and  _569
REMARK  229  A    between atoms: _568  and  _571
REMARK  230  A    between atoms: _571  and  _572
REMARK  231  A    between atoms: _572  and  ZN_690
REMARK  232  A    between atoms: _573  and  _575
REMARK  233  A    between atoms: _575  and  _576
REMARK  234  A    between atoms: _575  and  _578
REMARK  235  A    between atoms: _578  and  _579
REMARK  236  A    between atoms: _584  and  _585
REMARK  237  A    between atoms: _587  and  _589
REMARK  238  A    between atoms: _589  and  _590
REMARK  239  A    between atoms: _589  and  _592
REMARK  240  A    between atoms: _592  and  _593
REMARK  241  A    between atoms: _599  and  _601
REMARK  242  A    between atoms: _601  and  _602
REMARK  243  A    between atoms: _601  and  _604
REMARK  244  A    between atoms: _604  and  _605
REMARK  245  A    between atoms: _615  and  _617
REMARK  246  A    between atoms: _617  and  _618
REMARK  247  A    between atoms: _617  and  _620
REMARK  248  A    between atoms: _620  and  _621
REMARK  249  A    between atoms: _621  and  _622
REMARK  250  A    between atoms: _627  and  _629
REMARK  251  A    between atoms: _629  and  _630
REMARK  252  A    between atoms: _629  and  _632
REMARK  253  A    between atoms: _632  and  _633
REMARK  254  A    between atoms: _636  and  _638
REMARK  255  A    between atoms: _638  and  _639
REMARK  256  A    between atoms: _638  and  _641
REMARK  257  A    between atoms: _641  and  _642
REMARK  258  A    between atoms: _642  and  _643
REMARK  259  A    between atoms: _643  and  _644
REMARK  260  A    between atoms: _644  and  _645
REMARK  261  A    between atoms: _649  and  _651
REMARK  262  A    between atoms: _651  and  _652
REMARK  263  A    between atoms: _651  and  _654
REMARK  264  A    between atoms: _654  and  _655
REMARK  265  A    between atoms: _655  and  _656
REMARK  266  A    between atoms: _656  and  _657
REMARK  267  A    between atoms: _657  and  _658
REMARK  268  A    between atoms: _662  and  _664
REMARK  269  A    between atoms: _664  and  _665
REMARK  270  A    between atoms: _664  and  _667
REMARK  271  A    between atoms: _667  and  _668
REMARK  272  A    between atoms: _673  and  _674
REMARK  273  A    between atoms: _676  and  _678
REMARK  274  A    between atoms: _678  and  _679
REMARK  275  A    between atoms: _678  and  _681
REMARK  276  A    between atoms: _681  and  _682
REMARK  277  A    between atoms: _687  and  _688
REMARK                            x       y       z     vdW  Elec       q    Type
REMARK                         _______ _______ _______ _____ _____    ______ ____
ROOT
ATOM      1  CG  LYS A   1     194.872 132.306  43.073  0.00  0.00    -0.000 C 
ENDROOT
BRANCH   1   2
ATOM      2  CB  LYS A   1     193.658 133.128  43.356  0.00  0.00    +0.025 C 
BRANCH   2   3
ATOM      3  CA  LYS A   1     193.968 134.564  43.769  0.00  0.00    +0.133 C 
BRANCH   3   4
ATOM      4  N   LYS A   1     194.762 134.559  44.980  0.00  0.00    -0.239 NA
ATOM      5  H   LYS A   1     194.645 133.772  45.650  0.00  0.00    +0.142 HD
ENDBRANCH   3   4
BRANCH   3   6
ATOM      6  C   LYS A   1     192.668 135.293  44.038  0.00  0.00    +0.224 C 
ATOM      7  O   LYS A   1     192.264 135.457  45.188  0.00  0.00    -0.287 OA
ENDBRANCH   3   6
ENDBRANCH   2   3
ENDBRANCH   1   2
BRANCH   1   8
ATOM      8  CD  LYS A   1     195.455 132.683  41.746  0.00  0.00    -0.024 C 
BRANCH   8   9
ATOM      9  CE  LYS A   1     196.885 132.183  41.618  0.00  0.00    -0.086 C 
BRANCH   9  10
ATOM     10  NZ  LYS A   1     197.381 132.209  40.210  0.00  0.00    +0.380 N 
ATOM     11  HZ1 LYS A   1     198.360 131.858  40.182  0.00  0.00    -0.089 HD
ATOM     12  HZ2 LYS A   1     197.351 133.185  39.851  0.00  0.00    -0.089 HD
ATOM     13  HZ3 LYS A   1     196.777 131.602  39.620  0.00  0.00    -0.089 HD
ENDBRANCH   9  10
ENDBRANCH   8   9
ENDBRANCH   1   8
TORSDOF 7
REMARK  Name = ../refined-set-2016/1o1s/1o1s_pocket.pdb
REMARK  277 active torsions:
REMARK  status: ('A' for Active; 'I' for Inactive)
REMARK    1  A    between atoms: _1  and  _3
REMARK    2  A    between atoms: _3  and  _4
REMARK    3  A    between atoms: _7  and  _9
REMARK    4  A    between atoms: _9  and  _10
REMARK    5  A    between atoms: _9  and  _12
REMARK    6  A    between atoms: _12  and  _13
REMARK    7  A    between atoms: _18  and  _19
REMARK    8  A    between atoms: _21  and  _23
REMARK    9  A    between atoms: _23  and  _24
REMARK   10  A    between atoms: _23  and  _26
REMARK   11  A    between atoms: _26  and  _27
REMARK   12  A    between atoms: _27  and  _28
REMARK   13  A    between atoms: _28  and  _29
REMARK   14  A    between atoms: _29  and  _30
REMARK   15  A    between atoms: _34  and  _36
REMARK   16  A    between atoms: _36  and  _37
REMARK   17  A    between atoms: _36  and  _39
REMARK   18  A    between atoms: _39  and  _40
REMARK   19  A    between atoms: _45  and  _47
REMARK   20  A    between atoms: _47  and  _48
REMARK   21  A    between atoms: _47  and  _50
REMARK   22  A    between atoms: _50  and  _51
REMARK   23  A    between atoms: _56  and  _57
REMARK   24  A    between atoms: _59  and  _61
REMARK   25  A    between atoms: _61  and  _62
REMARK   26  A    between atoms: _61  and  _64
REMARK   27  A    between atoms: _64  and  _65
REMARK   28  A    between atoms: _65  and  _66
REMARK   29  A    between atoms: _71  and  _73
REMARK   30  A    between atoms: _73  and  _74
REMARK   31  A    between atoms: _73  and  _76
REMARK   32  A    between atoms: _76  and  _77
REMARK   33  A    between atoms: _80  and  _82
REMARK   34  A    between atoms: _82  and  _83
REMARK   35  A    between atoms: _82  and  _85
REMARK   36  A    between atoms: _85  and  _86
REMARK   37  A    between atoms: _86  and  _87
REMARK   38  A    between atoms: _87  and  _88
REMARK   39  A    between atoms: _88  and  _89
REMARK   40  A    between atoms: _93  and  _95
REMARK   41  A    between atoms: _95  and  _96
REMARK   42  A    between atoms: _95  and  _98
REMARK   43  A    between atoms: _98  and  _99
REMARK   44  A    between atoms: _104  and  _106
REMARK   45  A    between atoms: _106  and  _107
REMARK   46  A    between atoms: _106  and  _109
REMARK   47  A    between atoms: _109  and  _110
REMARK   48  A    between atoms: _115  and  _116
REMARK   49  A    between atoms: _118  and  _120
REMARK   50  A    between atoms: _120  and  _121
REMARK   51  A    between atoms: _120  and  _123
REMARK   52  A    between atoms: _123  and  _124
REMARK   53  A    between atoms: _129  and  _131
REMARK   54  A    between atoms: _131  and  _132
REMARK   55  A    between atoms: _135  and  _137
REMARK   56  A    between atoms: _137  and  _138
REMARK   57  A    between atoms: _137  and  _140
REMARK   58  A    between atoms: _140  and  _141
REMARK   59  A    between atoms: _141  and  _142
REMARK   60  A    between atoms: _147  and  _149
REMARK   61  A    between atoms: _149  and  _150
REMARK   62  A    between atoms: _149  and  _152
REMARK   63  A    between atoms: _152  and  _153
REMARK   64  A    between atoms: _155  and  _157
REMARK   65  A    between atoms: _157  and  _158
REMARK   66  A    between atoms: _157  and  _160
REMARK   67  A    between atoms: _160  and  _161
REMARK   68  A    between atoms: _164  and  _166
REMARK   69  A    between atoms: _166  and  _167
REMARK   70  A    between atoms: _170  and  _172
REMARK   71  A    between atoms: _172  and  _173
REMARK   72  A    between atoms: _172  and  _175
REMARK   73  A    between atoms: _175  and  _176
REMARK   74  A    between atoms: _178  and  _180
REMARK   75  A    between atoms: _180  and  _181
REMARK   76  A    between atoms: _180  and  _183
REMARK   77  A    between atoms: _183  and  _184
REMARK   78  A    between atoms: _194  and  _196
REMARK   79  A    between atoms: _196  and  _197
REMARK   80  A    between atoms: _196  and  _199
REMARK   81  A    between atoms: _199  and  _200
REMARK   82  A    between atoms: _210  and  _212
REMARK   83  A    between atoms: _212  and  _213
REMARK   84  A    between atoms: _212  and  _215
REMARK   85  A    between atoms: _215  and  _216
REMARK   86  A    between atoms: _221  and  _223
REMARK   87  A    between atoms: _223  and  _224
REMARK   88  A    between atoms: _223  and  _226
REMARK   89  A    between atoms: _226  and  _227
REMARK   90  A    between atoms: _230  and  _232
REMARK   91  A    between atoms: _232  and  _233
REMARK   92  A    between atoms: _237  and  _238
REMARK   93  A    between atoms: _243  and  _245
REMARK   94  A    between atoms: _245  and  _246
REMARK   95  A    between atoms: _245  and  _248
REMARK   96  A    between atoms: _248  and  _249
REMARK   97  A    between atoms: _252  and  _254
REMARK   98  A    between atoms: _254  and  _255
REMARK   99  A    between atoms: _254  and  _257
REMARK  100  A    between atoms: _257  and  _258
REMARK  101  A    between atoms: _263  and  _264
REMARK  102  A    between atoms: _266  and  _268
REMARK  103  A    between atoms: _268  and  _269
REMARK  104  A    between atoms: _272  and  _274
REMARK  105  A    between atoms: _274  and  _275
REMARK  106  A    between atoms: _274  and  _277
REMARK  107  A    between atoms: _277  and  _278
REMARK  108  A    between atoms: _278  and  _279
REMARK  109  A    between atoms: _281  and  _283
REMARK  110  A    between atoms: _283  and  _284
REMARK  111  A    between atoms: _283  and  _286
REMARK  112  A    between atoms: _286  and  _287
REMARK  113  A    between atoms: _292  and  _294
REMARK  114  A    between atoms: _294  and  _295
REMARK  115  A    between atoms: _294  and  _297
REMARK  116  A    between atoms: _297  and  _298
REMARK  117  A    between atoms: _298  and  _299
REMARK  118  A    between atoms: _302  and  _304
REMARK  119  A    between atoms: _304  and  _305
REMARK  120  A    between atoms: _304  and  _307
REMARK  121  A    between atoms: _307  and  _308
REMARK  122  A    between atoms: _311  and  _313
REMARK  123  A    between atoms: _313  and  _314
REMARK  124  A    between atoms: _313  and  _316
REMARK  125  A    between atoms: _319  and  _321
REMARK  126  A    between atoms: _321  and  _322
REMARK  127  A    between atoms: _321  and  _324
REMARK  128  A    between atoms: _324  and  _325
REMARK  129  A    between atoms: _325  and  _326
REMARK  130  A    between atoms: _326  and  _327
REMARK  131  A    between atoms: _336  and  _338
REMARK  132  A    between atoms: _338  and  _339
REMARK  133  A    between atoms: _338  and  _341
REMARK  134  A    between atoms: _341  and  _342
REMARK  135  A    between atoms: _344  and  _346
REMARK  136  A    between atoms: _346  and  _347
REMARK  137  A    between atoms: _346  and  _349
REMARK  138  A    between atoms: _349  and  _350
REMARK  139  A    between atoms: _355  and  _356
REMARK  140  A    between atoms: _358  and  _360
REMARK  141  A    between atoms: _360  and  _361
REMARK  142  A    between atoms: _360  and  _363
REMARK  143  A    between atoms: _365  and  _367
REMARK  144  A    between atoms: _367  and  _368
REMARK  145  A    between atoms: _370  and  _372
REMARK  146  A    between atoms: _372  and  _373
REMARK  147  A    between atoms: _372  and  _375
REMARK  148  A    between atoms: _375  and  _376
REMARK  149  A    between atoms: _376  and  _377
REMARK  150  A    between atoms: _379  and  _381
REMARK  151  A    between atoms: _381  and  _382
REMARK  152  A    between atoms: _381  and  _384
REMARK  153  A    between atoms: _384  and  _385
REMARK  154  A    between atoms: _385  and  _386
REMARK  155  A    between atoms: _389  and  _391
REMARK  156  A    between atoms: _391  and  _392
REMARK  157  A    between atoms: _395  and  _397
REMARK  158  A    between atoms: _397  and  _398
REMARK  159  A    between atoms: _397  and  _400
REMARK  160  A    between atoms: _400  and  _401
REMARK  161  A    between atoms: _406  and  _408
REMARK  162  A    between atoms: _408  and  _409
REMARK  163  A    between atoms: _411  and  _413
REMARK  164  A    between atoms: _413  and  _414
REMARK  165  A    between atoms: _416  and  _418
REMARK  166  A    between atoms: _418  and  _419
REMARK  167  A    between atoms: _418  and  _421
REMARK  168  A    between atoms: _421  and  _422
REMARK  169  A    between atoms: _427  and  _428
REMARK  170  A    between atoms: _430  and  _432
REMARK  171  A    between atoms: _432  and  _433
REMARK  172  A    between atoms: _432  and  _435
REMARK  173  A    between atoms: _435  and  _436
REMARK  174  A    between atoms: _439  and  _441
REMARK  175  A    between atoms: _441  and  _442
REMARK  176  A    between atoms: _441  and  _444
REMARK  177  A    between atoms: _444  and  _445
REMARK  178  A    between atoms: _451  and  _453
REMARK  179  A    between atoms: _453  and  _454
REMARK  180  A    between atoms: _453  and  _456
REMARK  181  A    between atoms: _458  and  _460
REMARK  182  A    between atoms: _460  and  _461
REMARK  183  A    between atoms: _463  and  _465
REMARK  184  A    between atoms: _465  and  _466
REMARK  185  A    between atoms: _465  and  _468
REMARK  186  A    between atoms: _468  and  _469
REMARK  187  A    between atoms: _475  and  _477
REMARK  188  A    between atoms: _477  and  _478
REMARK  189  A    between atoms: _477  and  _480
REMARK  190  A    between atoms: _480  and  _481
REMARK  191  A    between atoms: _481  and  _482
REMARK  192  A    between atoms: _487  and  _489
REMARK  193  A    between atoms: _489  and  _490
REMARK  194  A    between atoms: _492  and  _494
REMARK  195  A    between atoms: _494  and  _495
REMARK  196  A    between atoms: _494  and  _497
REMARK  197  A    between atoms: _497  and  _498
REMARK  198  A    between atoms: _498  and  _499
REMARK  199  A    between atoms: _499  and  _500
REMARK  200  A    between atoms: _509  and  _511
REMARK  201  A    between atoms: _511  and  _512
REMARK  202  A    between atoms: _511  and  _514
REMARK  203  A    between atoms: _516  and  _518
REMARK  204  A    between atoms: _518  and  _519
REMARK  205  A    between atoms: _518  and  _521
REMARK  206  A    between atoms: _521  and  _522
REMARK  207  A    between atoms: _527  and  _529
REMARK  208  A    between atoms: _529  and  _530
REMARK  209  A    between atoms: _529  and  _532
REMARK  210  A    between atoms: _532  and  _533
REMARK  211  A    between atoms: _533  and  _534
REMARK  212  A    between atoms: _534  and  _535
REMARK  213  A    between atoms: _535  and  _536
REMARK  214  A    between atoms: _540  and  _542
REMARK  215  A    between atoms: _542  and  _543
REMARK  216  A    between atoms: _542  and  _545
REMARK  217  A    between atoms: _545  and  _546
REMARK  218  A    between atoms: _549  and  _551
REMARK  219  A    between atoms: _551  and  _552
REMARK  220  A    between atoms: _551  and  _554
REMARK  221  A    between atoms: _557  and  _559
REMARK  222  A    between atoms: _559  and  _560
REMARK  223  A    between atoms: _559  and  _562
REMARK  224  A    between atoms: _562  and  _563
REMARK  225  A    between atoms: _563  and  _565
REMARK  226  A    between atoms: _565  and  ZN_690
REMARK  227  A    between atoms: _566  and  _568
REMARK  228  A    between atoms: _568  and  _569
REMARK  229  A    between atoms: _568  and  _571
REMARK  230  A    between atoms: _571  and  _572
REMARK  231  A    between atoms: _572  and  ZN_690
REMARK  232  A    between atoms: _573  and  _575
REMARK  233  A    between atoms: _575  and  _576
REMARK  234  A    between atoms: _575  and  _578
REMARK  235  A    between atoms: _578  and  _579
REMARK  236  A    between atoms: _584  and  _585
REMARK  237  A    between atoms: _587  and  _589
REMARK  238  A    between atoms: _589  and  _590
REMARK  239  A    between atoms: _589  and  _592
REMARK  240  A    between atoms: _592  and  _593
REMARK  241  A    between atoms: _599  and  _601
REMARK  242  A    between atoms: _601  and  _602
REMARK  243  A    between atoms: _601  and  _604
REMARK  244  A    between atoms: _604  and  _605
REMARK  245  A    between atoms: _615  and  _617
REMARK  246  A    between atoms: _617  and  _618
REMARK  247  A    between atoms: _617  and  _620
REMARK  248  A    between atoms: _620  and  _621
REMARK  249  A    between atoms: _621  and  _622
REMARK  250  A    between atoms: _627  and  _629
REMARK  251  A    between atoms: _629  and  _630
REMARK  252  A    between atoms: _629  and  _632
REMARK  253  A    between atoms: _632  and  _633
REMARK  254  A    between atoms: _636  and  _638
REMARK  255  A    between atoms: _638  and  _639
REMARK  256  A    between atoms: _638  and  _641
REMARK  257  A    between atoms: _641  and  _642
REMARK  258  A    between atoms: _642  and  _643
REMARK  259  A    between atoms: _643  and  _644
REMARK  260  A    between atoms: _644  and  _645
REMARK  261  A    between atoms: _649  and  _651
REMARK  262  A    between atoms: _651  and  _652
REMARK  263  A    between atoms: _651  and  _654
REMARK  264  A    between atoms: _654  and  _655
REMARK  265  A    between atoms: _655  and  _656
REMARK  266  A    between atoms: _656  and  _657
REMARK  267  A    between atoms: _657  and  _658
REMARK  268  A    between atoms: _662  and  _664
REMARK  269  A    between atoms: _664  and  _665
REMARK  270  A    between atoms: _664  and  _667
REMARK  271  A    between atoms: _667  and  _668
REMARK  272  A    between atoms: _673  and  _674
REMARK  273  A    between atoms: _676  and  _678
REMARK  274  A    between atoms: _678  and  _679
REMARK  275  A    between atoms: _678  and  _681
REMARK  276  A    between atoms: _681  and  _682
REMARK  277  A    between atoms: _687  and  _688
REMARK                            x       y       z     vdW  Elec       q    Type
REMARK                         _______ _______ _______ _____ _____    ______ ____
ROOT
ATOM      1  CG  TYR A   1     185.623 127.911  37.332  0.00  0.00    -0.020 A 
ATOM      2  CD2 TYR A   1     186.954 127.869  37.728  0.00  0.00    -0.001 A 
ATOM      3  CE2 TYR A   1     187.741 126.735  37.498  0.00  0.00    +0.036 A 
ATOM      4  CZ  TYR A   1     187.198 125.638  36.862  0.00  0.00    +0.134 A 
ATOM      5  CE1 TYR A   1     185.875 125.659  36.441  0.00  0.00    +0.036 A 
ATOM      6  CD1 TYR A   1     185.091 126.788  36.685  0.00  0.00    -0.001 A 
ENDROOT
BRANCH   4   7
ATOM      7  OH  TYR A   1     187.946 124.491  36.725  0.00  0.00    -0.506 OA
ATOM      8  HH  TYR A   1     188.197 124.153  37.621  0.00  0.00    +0.292 HD
ENDBRANCH   4   7
BRANCH   1   9
ATOM      9  CB  TYR A   1     184.775 129.134  37.594  0.00  0.00    +0.051 C 
BRANCH   9  10
ATOM     10  CA  TYR A   1     183.730 128.966  38.704  0.00  0.00    +0.137 C 
BRANCH  10  11
ATOM     11  N   TYR A   1     183.254 130.280  39.123  0.00  0.00    -0.239 NA
ATOM     12  H   TYR A   1     183.712 131.125  38.725  0.00  0.00    +0.142 HD
ENDBRANCH  10  11
BRANCH  10  13
ATOM     13  C   TYR A   1     184.356 128.243  39.897  0.00  0.00    +0.224 C 
ATOM     14  O   TYR A   1     184.021 127.096  40.206  0.00  0.00    -0.287 OA
ENDBRANCH  10  13
ENDBRANCH   9  10
ENDBRANCH   1   9
TORSDOF 5
REMARK  Name = ../refined-set-2016/1o1s/1o1s_pocket.pdb
REMARK  277 active torsions:
REMARK  status: ('A' for Active; 'I' for Inactive)
REMARK    1  A    between atoms: _1  and  _3
REMARK    2  A    between atoms: _3  and  _4
REMARK    3  A    between atoms: _7  and  _9
REMARK    4  A    between atoms: _9  and  _10
REMARK    5  A    between atoms: _9  and  _12
REMARK    6  A    between atoms: _12  and  _13
REMARK    7  A    between atoms: _18  and  _19
REMARK    8  A    between atoms: _21  and  _23
REMARK    9  A    between atoms: _23  and  _24
REMARK   10  A    between atoms: _23  and  _26
REMARK   11  A    between atoms: _26  and  _27
REMARK   12  A    between atoms: _27  and  _28
REMARK   13  A    between atoms: _28  and  _29
REMARK   14  A    between atoms: _29  and  _30
REMARK   15  A    between atoms: _34  and  _36
REMARK   16  A    between atoms: _36  and  _37
REMARK   17  A    between atoms: _36  and  _39
REMARK   18  A    between atoms: _39  and  _40
REMARK   19  A    between atoms: _45  and  _47
REMARK   20  A    between atoms: _47  and  _48
REMARK   21  A    between atoms: _47  and  _50
REMARK   22  A    between atoms: _50  and  _51
REMARK   23  A    between atoms: _56  and  _57
REMARK   24  A    between atoms: _59  and  _61
REMARK   25  A    between atoms: _61  and  _62
REMARK   26  A    between atoms: _61  and  _64
REMARK   27  A    between atoms: _64  and  _65
REMARK   28  A    between atoms: _65  and  _66
REMARK   29  A    between atoms: _71  and  _73
REMARK   30  A    between atoms: _73  and  _74
REMARK   31  A    between atoms: _73  and  _76
REMARK   32  A    between atoms: _76  and  _77
REMARK   33  A    between atoms: _80  and  _82
REMARK   34  A    between atoms: _82  and  _83
REMARK   35  A    between atoms: _82  and  _85
REMARK   36  A    between atoms: _85  and  _86
REMARK   37  A    between atoms: _86  and  _87
REMARK   38  A    between atoms: _87  and  _88
REMARK   39  A    between atoms: _88  and  _89
REMARK   40  A    between atoms: _93  and  _95
REMARK   41  A    between atoms: _95  and  _96
REMARK   42  A    between atoms: _95  and  _98
REMARK   43  A    between atoms: _98  and  _99
REMARK   44  A    between atoms: _104  and  _106
REMARK   45  A    between atoms: _106  and  _107
REMARK   46  A    between atoms: _106  and  _109
REMARK   47  A    between atoms: _109  and  _110
REMARK   48  A    between atoms: _115  and  _116
REMARK   49  A    between atoms: _118  and  _120
REMARK   50  A    between atoms: _120  and  _121
REMARK   51  A    between atoms: _120  and  _123
REMARK   52  A    between atoms: _123  and  _124
REMARK   53  A    between atoms: _129  and  _131
REMARK   54  A    between atoms: _131  and  _132
REMARK   55  A    between atoms: _135  and  _137
REMARK   56  A    between atoms: _137  and  _138
REMARK   57  A    between atoms: _137  and  _140
REMARK   58  A    between atoms: _140  and  _141
REMARK   59  A    between atoms: _141  and  _142
REMARK   60  A    between atoms: _147  and  _149
REMARK   61  A    between atoms: _149  and  _150
REMARK   62  A    between atoms: _149  and  _152
REMARK   63  A    between atoms: _152  and  _153
REMARK   64  A    between atoms: _155  and  _157
REMARK   65  A    between atoms: _157  and  _158
REMARK   66  A    between atoms: _157  and  _160
REMARK   67  A    between atoms: _160  and  _161
REMARK   68  A    between atoms: _164  and  _166
REMARK   69  A    between atoms: _166  and  _167
REMARK   70  A    between atoms: _170  and  _172
REMARK   71  A    between atoms: _172  and  _173
REMARK   72  A    between atoms: _172  and  _175
REMARK   73  A    between atoms: _175  and  _176
REMARK   74  A    between atoms: _178  and  _180
REMARK   75  A    between atoms: _180  and  _181
REMARK   76  A    between atoms: _180  and  _183
REMARK   77  A    between atoms: _183  and  _184
REMARK   78  A    between atoms: _194  and  _196
REMARK   79  A    between atoms: _196  and  _197
REMARK   80  A    between atoms: _196  and  _199
REMARK   81  A    between atoms: _199  and  _200
REMARK   82  A    between atoms: _210  and  _212
REMARK   83  A    between atoms: _212  and  _213
REMARK   84  A    between atoms: _212  and  _215
REMARK   85  A    between atoms: _215  and  _216
REMARK   86  A    between atoms: _221  and  _223
REMARK   87  A    between atoms: _223  and  _224
REMARK   88  A    between atoms: _223  and  _226
REMARK   89  A    between atoms: _226  and  _227
REMARK   90  A    between atoms: _230  and  _232
REMARK   91  A    between atoms: _232  and  _233
REMARK   92  A    between atoms: _237  and  _238
REMARK   93  A    between atoms: _243  and  _245
REMARK   94  A    between atoms: _245  and  _246
REMARK   95  A    between atoms: _245  and  _248
REMARK   96  A    between atoms: _248  and  _249
REMARK   97  A    between atoms: _252  and  _254
REMARK   98  A    between atoms: _254  and  _255
REMARK   99  A    between atoms: _254  and  _257
REMARK  100  A    between atoms: _257  and  _258
REMARK  101  A    between atoms: _263  and  _264
REMARK  102  A    between atoms: _266  and  _268
REMARK  103  A    between atoms: _268  and  _269
REMARK  104  A    between atoms: _272  and  _274
REMARK  105  A    between atoms: _274  and  _275
REMARK  106  A    between atoms: _274  and  _277
REMARK  107  A    between atoms: _277  and  _278
REMARK  108  A    between atoms: _278  and  _279
REMARK  109  A    between atoms: _281  and  _283
REMARK  110  A    between atoms: _283  and  _284
REMARK  111  A    between atoms: _283  and  _286
REMARK  112  A    between atoms: _286  and  _287
REMARK  113  A    between atoms: _292  and  _294
REMARK  114  A    between atoms: _294  and  _295
REMARK  115  A    between atoms: _294  and  _297
REMARK  116  A    between atoms: _297  and  _298
REMARK  117  A    between atoms: _298  and  _299
REMARK  118  A    between atoms: _302  and  _304
REMARK  119  A    between atoms: _304  and  _305
REMARK  120  A    between atoms: _304  and  _307
REMARK  121  A    between atoms: _307  and  _308
REMARK  122  A    between atoms: _311  and  _313
REMARK  123  A    between atoms: _313  and  _314
REMARK  124  A    between atoms: _313  and  _316
REMARK  125  A    between atoms: _319  and  _321
REMARK  126  A    between atoms: _321  and  _322
REMARK  127  A    between atoms: _321  and  _324
REMARK  128  A    between atoms: _324  and  _325
REMARK  129  A    between atoms: _325  and  _326
REMARK  130  A    between atoms: _326  and  _327
REMARK  131  A    between atoms: _336  and  _338
REMARK  132  A    between atoms: _338  and  _339
REMARK  133  A    between atoms: _338  and  _341
REMARK  134  A    between atoms: _341  and  _342
REMARK  135  A    between atoms: _344  and  _346
REMARK  136  A    between atoms: _346  and  _347
REMARK  137  A    between atoms: _346  and  _349
REMARK  138  A    between atoms: _349  and  _350
REMARK  139  A    between atoms: _355  and  _356
REMARK  140  A    between atoms: _358  and  _360
REMARK  141  A    between atoms: _360  and  _361
REMARK  142  A    between atoms: _360  and  _363
REMARK  143  A    between atoms: _365  and  _367
REMARK  144  A    between atoms: _367  and  _368
REMARK  145  A    between atoms: _370  and  _372
REMARK  146  A    between atoms: _372  and  _373
REMARK  147  A    between atoms: _372  and  _375
REMARK  148  A    between atoms: _375  and  _376
REMARK  149  A    between atoms: _376  and  _377
REMARK  150  A    between atoms: _379  and  _381
REMARK  151  A    between atoms: _381  and  _382
REMARK  152  A    between atoms: _381  and  _384
REMARK  153  A    between atoms: _384  and  _385
REMARK  154  A    between atoms: _385  and  _386
REMARK  155  A    between atoms: _389  and  _391
REMARK  156  A    between atoms: _391  and  _392
REMARK  157  A    between atoms: _395  and  _397
REMARK  158  A    between atoms: _397  and  _398
REMARK  159  A    between atoms: _397  and  _400
REMARK  160  A    between atoms: _400  and  _401
REMARK  161  A    between atoms: _406  and  _408
REMARK  162  A    between atoms: _408  and  _409
REMARK  163  A    between atoms: _411  and  _413
REMARK  164  A    between atoms: _413  and  _414
REMARK  165  A    between atoms: _416  and  _418
REMARK  166  A    between atoms: _418  and  _419
REMARK  167  A    between atoms: _418  and  _421
REMARK  168  A    between atoms: _421  and  _422
REMARK  169  A    between atoms: _427  and  _428
REMARK  170  A    between atoms: _430  and  _432
REMARK  171  A    between atoms: _432  and  _433
REMARK  172  A    between atoms: _432  and  _435
REMARK  173  A    between atoms: _435  and  _436
REMARK  174  A    between atoms: _439  and  _441
REMARK  175  A    between atoms: _441  and  _442
REMARK  176  A    between atoms: _441  and  _444
REMARK  177  A    between atoms: _444  and  _445
REMARK  178  A    between atoms: _451  and  _453
REMARK  179  A    between atoms: _453  and  _454
REMARK  180  A    between atoms: _453  and  _456
REMARK  181  A    between atoms: _458  and  _460
REMARK  182  A    between atoms: _460  and  _461
REMARK  183  A    between atoms: _463  and  _465
REMARK  184  A    between atoms: _465  and  _466
REMARK  185  A    between atoms: _465  and  _468
REMARK  186  A    between atoms: _468  and  _469
REMARK  187  A    between atoms: _475  and  _477
REMARK  188  A    between atoms: _477  and  _478
REMARK  189  A    between atoms: _477  and  _480
REMARK  190  A    between atoms: _480  and  _481
REMARK  191  A    between atoms: _481  and  _482
REMARK  192  A    between atoms: _487  and  _489
REMARK  193  A    between atoms: _489  and  _490
REMARK  194  A    between atoms: _492  and  _494
REMARK  195  A    between atoms: _494  and  _495
REMARK  196  A    between atoms: _494  and  _497
REMARK  197  A    between atoms: _497  and  _498
REMARK  198  A    between atoms: _498  and  _499
REMARK  199  A    between atoms: _499  and  _500
REMARK  200  A    between atoms: _509  and  _511
REMARK  201  A    between atoms: _511  and  _512
REMARK  202  A    between atoms: _511  and  _514
REMARK  203  A    between atoms: _516  and  _518
REMARK  204  A    between atoms: _518  and  _519
REMARK  205  A    between atoms: _518  and  _521
REMARK  206  A    between atoms: _521  and  _522
REMARK  207  A    between atoms: _527  and  _529
REMARK  208  A    between atoms: _529  and  _530
REMARK  209  A    between atoms: _529  and  _532
REMARK  210  A    between atoms: _532  and  _533
REMARK  211  A    between atoms: _533  and  _534
REMARK  212  A    between atoms: _534  and  _535
REMARK  213  A    between atoms: _535  and  _536
REMARK  214  A    between atoms: _540  and  _542
REMARK  215  A    between atoms: _542  and  _543
REMARK  216  A    between atoms: _542  and  _545
REMARK  217  A    between atoms: _545  and  _546
REMARK  218  A    between atoms: _549  and  _551
REMARK  219  A    between atoms: _551  and  _552
REMARK  220  A    between atoms: _551  and  _554
REMARK  221  A    between atoms: _557  and  _559
REMARK  222  A    between atoms: _559  and  _560
REMARK  223  A    between atoms: _559  and  _562
REMARK  224  A    between atoms: _562  and  _563
REMARK  225  A    between atoms: _563  and  _565
REMARK  226  A    between atoms: _565  and  ZN_690
REMARK  227  A    between atoms: _566  and  _568
REMARK  228  A    between atoms: _568  and  _569
REMARK  229  A    between atoms: _568  and  _571
REMARK  230  A    between atoms: _571  and  _572
REMARK  231  A    between atoms: _572  and  ZN_690
REMARK  232  A    between atoms: _573  and  _575
REMARK  233  A    between atoms: _575  and  _576
REMARK  234  A    between atoms: _575  and  _578
REMARK  235  A    between atoms: _578  and  _579
REMARK  236  A    between atoms: _584  and  _585
REMARK  237  A    between atoms: _587  and  _589
REMARK  238  A    between atoms: _589  and  _590
REMARK  239  A    between atoms: _589  and  _592
REMARK  240  A    between atoms: _592  and  _593
REMARK  241  A    between atoms: _599  and  _601
REMARK  242  A    between atoms: _601  and  _602
REMARK  243  A    between atoms: _601  and  _604
REMARK  244  A    between atoms: _604  and  _605
REMARK  245  A    between atoms: _615  and  _617
REMARK  246  A    between atoms: _617  and  _618
REMARK  247  A    between atoms: _617  and  _620
REMARK  248  A    between atoms: _620  and  _621
REMARK  249  A    between atoms: _621  and  _622
REMARK  250  A    between atoms: _627  and  _629
REMARK  251  A    between atoms: _629  and  _630
REMARK  252  A    between atoms: _629  and  _632
REMARK  253  A    between atoms: _632  and  _633
REMARK  254  A    between atoms: _636  and  _638
REMARK  255  A    between atoms: _638  and  _639
REMARK  256  A    between atoms: _638  and  _641
REMARK  257  A    between atoms: _641  and  _642
REMARK  258  A    between atoms: _642  and  _643
REMARK  259  A    between atoms: _643  and  _644
REMARK  260  A    between atoms: _644  and  _645
REMARK  261  A    between atoms: _649  and  _651
REMARK  262  A    between atoms: _651  and  _652
REMARK  263  A    between atoms: _651  and  _654
REMARK  264  A    between atoms: _654  and  _655
REMARK  265  A    between atoms: _655  and  _656
REMARK  266  A    between atoms: _656  and  _657
REMARK  267  A    between atoms: _657  and  _658
REMARK  268  A    between atoms: _662  and  _664
REMARK  269  A    between atoms: _664  and  _665
REMARK  270  A    between atoms: _664  and  _667
REMARK  271  A    between atoms: _667  and  _668
REMARK  272  A    between atoms: _673  and  _674
REMARK  273  A    between atoms: _676  and  _678
REMARK  274  A    between atoms: _678  and  _679
REMARK  275  A    between atoms: _678  and  _681
REMARK  276  A    between atoms: _681  and  _682
REMARK  277  A    between atoms: _687  and  _688
REMARK                            x       y       z     vdW  Elec       q    Type
REMARK                         _______ _______ _______ _____ _____    ______ ____
ROOT
ATOM      1  CG  TYR A   1     184.265 123.223  39.805  0.00  0.00    -0.020 A 
ATOM      2  CD2 TYR A   1     183.704 121.960  39.563  0.00  0.00    -0.001 A 
ATOM      3  CE2 TYR A   1     182.862 121.743  38.481  0.00  0.00    +0.036 A 
ATOM      4  CZ  TYR A   1     182.577 122.800  37.620  0.00  0.00    +0.134 A 
ATOM      5  CE1 TYR A   1     183.123 124.061  37.842  0.00  0.00    +0.036 A 
ATOM      6  CD1 TYR A   1     183.965 124.259  38.922  0.00  0.00    -0.001 A 
ENDROOT
BRANCH   4   7
ATOM      7  OH  TYR A   1     181.797 122.617  36.501  0.00  0.00    -0.506 OA
ATOM      8  HH  TYR A   1     180.901 122.295  36.774  0.00  0.00    +0.292 HD
ENDBRANCH   4   7
BRANCH   1   9
ATOM      9  CB  TYR A   1     185.051 123.497  41.072  0.00  0.00    +0.051 C 
BRANCH   9  10
ATOM     10  CA  TYR A   1     184.087 123.679  42.270  0.00  0.00    +0.137 C 
BRANCH  10  11
ATOM     11  N   TYR A   1     183.259 124.870  42.113  0.00  0.00    -0.239 NA
ATOM     12  H   TYR A   1     183.636 125.707  41.624  0.00  0.00    +0.142 HD
ENDBRANCH  10  11
BRANCH  10  13
ATOM     13  C   TYR A   1     184.756 123.457  43.605  0.00  0.00    +0.224 C 
ATOM     14  O   TYR A   1     185.071 122.309  43.970  0.00  0.00    -0.287 OA
ENDBRANCH  10  13
ENDBRANCH   9  10
ENDBRANCH   1   9
TORSDOF 5
REMARK  Name = ../refined-set-2016/1o1s/1o1s_pocket.pdb
REMARK  277 active torsions:
REMARK  status: ('A' for Active; 'I' for Inactive)
REMARK    1  A    between atoms: _1  and  _3
REMARK    2  A    between atoms: _3  and  _4
REMARK    3  A    between atoms: _7  and  _9
REMARK    4  A    between atoms: _9  and  _10
REMARK    5  A    between atoms: _9  and  _12
REMARK    6  A    between atoms: _12  and  _13
REMARK    7  A    between atoms: _18  and  _19
REMARK    8  A    between atoms: _21  and  _23
REMARK    9  A    between atoms: _23  and  _24
REMARK   10  A    between atoms: _23  and  _26
REMARK   11  A    between atoms: _26  and  _27
REMARK   12  A    between atoms: _27  and  _28
REMARK   13  A    between atoms: _28  and  _29
REMARK   14  A    between atoms: _29  and  _30
REMARK   15  A    between atoms: _34  and  _36
REMARK   16  A    between atoms: _36  and  _37
REMARK   17  A    between atoms: _36  and  _39
REMARK   18  A    between atoms: _39  and  _40
REMARK   19  A    between atoms: _45  and  _47
REMARK   20  A    between atoms: _47  and  _48
REMARK   21  A    between atoms: _47  and  _50
REMARK   22  A    between atoms: _50  and  _51
REMARK   23  A    between atoms: _56  and  _57
REMARK   24  A    between atoms: _59  and  _61
REMARK   25  A    between atoms: _61  and  _62
REMARK   26  A    between atoms: _61  and  _64
REMARK   27  A    between atoms: _64  and  _65
REMARK   28  A    between atoms: _65  and  _66
REMARK   29  A    between atoms: _71  and  _73
REMARK   30  A    between atoms: _73  and  _74
REMARK   31  A    between atoms: _73  and  _76
REMARK   32  A    between atoms: _76  and  _77
REMARK   33  A    between atoms: _80  and  _82
REMARK   34  A    between atoms: _82  and  _83
REMARK   35  A    between atoms: _82  and  _85
REMARK   36  A    between atoms: _85  and  _86
REMARK   37  A    between atoms: _86  and  _87
REMARK   38  A    between atoms: _87  and  _88
REMARK   39  A    between atoms: _88  and  _89
REMARK   40  A    between atoms: _93  and  _95
REMARK   41  A    between atoms: _95  and  _96
REMARK   42  A    between atoms: _95  and  _98
REMARK   43  A    between atoms: _98  and  _99
REMARK   44  A    between atoms: _104  and  _106
REMARK   45  A    between atoms: _106  and  _107
REMARK   46  A    between atoms: _106  and  _109
REMARK   47  A    between atoms: _109  and  _110
REMARK   48  A    between atoms: _115  and  _116
REMARK   49  A    between atoms: _118  and  _120
REMARK   50  A    between atoms: _120  and  _121
REMARK   51  A    between atoms: _120  and  _123
REMARK   52  A    between atoms: _123  and  _124
REMARK   53  A    between atoms: _129  and  _131
REMARK   54  A    between atoms: _131  and  _132
REMARK   55  A    between atoms: _135  and  _137
REMARK   56  A    between atoms: _137  and  _138
REMARK   57  A    between atoms: _137  and  _140
REMARK   58  A    between atoms: _140  and  _141
REMARK   59  A    between atoms: _141  and  _142
REMARK   60  A    between atoms: _147  and  _149
REMARK   61  A    between atoms: _149  and  _150
REMARK   62  A    between atoms: _149  and  _152
REMARK   63  A    between atoms: _152  and  _153
REMARK   64  A    between atoms: _155  and  _157
REMARK   65  A    between atoms: _157  and  _158
REMARK   66  A    between atoms: _157  and  _160
REMARK   67  A    between atoms: _160  and  _161
REMARK   68  A    between atoms: _164  and  _166
REMARK   69  A    between atoms: _166  and  _167
REMARK   70  A    between atoms: _170  and  _172
REMARK   71  A    between atoms: _172  and  _173
REMARK   72  A    between atoms: _172  and  _175
REMARK   73  A    between atoms: _175  and  _176
REMARK   74  A    between atoms: _178  and  _180
REMARK   75  A    between atoms: _180  and  _181
REMARK   76  A    between atoms: _180  and  _183
REMARK   77  A    between atoms: _183  and  _184
REMARK   78  A    between atoms: _194  and  _196
REMARK   79  A    between atoms: _196  and  _197
REMARK   80  A    between atoms: _196  and  _199
REMARK   81  A    between atoms: _199  and  _200
REMARK   82  A    between atoms: _210  and  _212
REMARK   83  A    between atoms: _212  and  _213
REMARK   84  A    between atoms: _212  and  _215
REMARK   85  A    between atoms: _215  and  _216
REMARK   86  A    between atoms: _221  and  _223
REMARK   87  A    between atoms: _223  and  _224
REMARK   88  A    between atoms: _223  and  _226
REMARK   89  A    between atoms: _226  and  _227
REMARK   90  A    between atoms: _230  and  _232
REMARK   91  A    between atoms: _232  and  _233
REMARK   92  A    between atoms: _237  and  _238
REMARK   93  A    between atoms: _243  and  _245
REMARK   94  A    between atoms: _245  and  _246
REMARK   95  A    between atoms: _245  and  _248
REMARK   96  A    between atoms: _248  and  _249
REMARK   97  A    between atoms: _252  and  _254
REMARK   98  A    between atoms: _254  and  _255
REMARK   99  A    between atoms: _254  and  _257
REMARK  100  A    between atoms: _257  and  _258
REMARK  101  A    between atoms: _263  and  _264
REMARK  102  A    between atoms: _266  and  _268
REMARK  103  A    between atoms: _268  and  _269
REMARK  104  A    between atoms: _272  and  _274
REMARK  105  A    between atoms: _274  and  _275
REMARK  106  A    between atoms: _274  and  _277
REMARK  107  A    between atoms: _277  and  _278
REMARK  108  A    between atoms: _278  and  _279
REMARK  109  A    between atoms: _281  and  _283
REMARK  110  A    between atoms: _283  and  _284
REMARK  111  A    between atoms: _283  and  _286
REMARK  112  A    between atoms: _286  and  _287
REMARK  113  A    between atoms: _292  and  _294
REMARK  114  A    between atoms: _294  and  _295
REMARK  115  A    between atoms: _294  and  _297
REMARK  116  A    between atoms: _297  and  _298
REMARK  117  A    between atoms: _298  and  _299
REMARK  118  A    between atoms: _302  and  _304
REMARK  119  A    between atoms: _304  and  _305
REMARK  120  A    between atoms: _304  and  _307
REMARK  121  A    between atoms: _307  and  _308
REMARK  122  A    between atoms: _311  and  _313
REMARK  123  A    between atoms: _313  and  _314
REMARK  124  A    between atoms: _313  and  _316
REMARK  125  A    between atoms: _319  and  _321
REMARK  126  A    between atoms: _321  and  _322
REMARK  127  A    between atoms: _321  and  _324
REMARK  128  A    between atoms: _324  and  _325
REMARK  129  A    between atoms: _325  and  _326
REMARK  130  A    between atoms: _326  and  _327
REMARK  131  A    between atoms: _336  and  _338
REMARK  132  A    between atoms: _338  and  _339
REMARK  133  A    between atoms: _338  and  _341
REMARK  134  A    between atoms: _341  and  _342
REMARK  135  A    between atoms: _344  and  _346
REMARK  136  A    between atoms: _346  and  _347
REMARK  137  A    between atoms: _346  and  _349
REMARK  138  A    between atoms: _349  and  _350
REMARK  139  A    between atoms: _355  and  _356
REMARK  140  A    between atoms: _358  and  _360
REMARK  141  A    between atoms: _360  and  _361
REMARK  142  A    between atoms: _360  and  _363
REMARK  143  A    between atoms: _365  and  _367
REMARK  144  A    between atoms: _367  and  _368
REMARK  145  A    between atoms: _370  and  _372
REMARK  146  A    between atoms: _372  and  _373
REMARK  147  A    between atoms: _372  and  _375
REMARK  148  A    between atoms: _375  and  _376
REMARK  149  A    between atoms: _376  and  _377
REMARK  150  A    between atoms: _379  and  _381
REMARK  151  A    between atoms: _381  and  _382
REMARK  152  A    between atoms: _381  and  _384
REMARK  153  A    between atoms: _384  and  _385
REMARK  154  A    between atoms: _385  and  _386
REMARK  155  A    between atoms: _389  and  _391
REMARK  156  A    between atoms: _391  and  _392
REMARK  157  A    between atoms: _395  and  _397
REMARK  158  A    between atoms: _397  and  _398
REMARK  159  A    between atoms: _397  and  _400
REMARK  160  A    between atoms: _400  and  _401
REMARK  161  A    between atoms: _406  and  _408
REMARK  162  A    between atoms: _408  and  _409
REMARK  163  A    between atoms: _411  and  _413
REMARK  164  A    between atoms: _413  and  _414
REMARK  165  A    between atoms: _416  and  _418
REMARK  166  A    between atoms: _418  and  _419
REMARK  167  A    between atoms: _418  and  _421
REMARK  168  A    between atoms: _421  and  _422
REMARK  169  A    between atoms: _427  and  _428
REMARK  170  A    between atoms: _430  and  _432
REMARK  171  A    between atoms: _432  and  _433
REMARK  172  A    between atoms: _432  and  _435
REMARK  173  A    between atoms: _435  and  _436
REMARK  174  A    between atoms: _439  and  _441
REMARK  175  A    between atoms: _441  and  _442
REMARK  176  A    between atoms: _441  and  _444
REMARK  177  A    between atoms: _444  and  _445
REMARK  178  A    between atoms: _451  and  _453
REMARK  179  A    between atoms: _453  and  _454
REMARK  180  A    between atoms: _453  and  _456
REMARK  181  A    between atoms: _458  and  _460
REMARK  182  A    between atoms: _460  and  _461
REMARK  183  A    between atoms: _463  and  _465
REMARK  184  A    between atoms: _465  and  _466
REMARK  185  A    between atoms: _465  and  _468
REMARK  186  A    between atoms: _468  and  _469
REMARK  187  A    between atoms: _475  and  _477
REMARK  188  A    between atoms: _477  and  _478
REMARK  189  A    between atoms: _477  and  _480
REMARK  190  A    between atoms: _480  and  _481
REMARK  191  A    between atoms: _481  and  _482
REMARK  192  A    between atoms: _487  and  _489
REMARK  193  A    between atoms: _489  and  _490
REMARK  194  A    between atoms: _492  and  _494
REMARK  195  A    between atoms: _494  and  _495
REMARK  196  A    between atoms: _494  and  _497
REMARK  197  A    between atoms: _497  and  _498
REMARK  198  A    between atoms: _498  and  _499
REMARK  199  A    between atoms: _499  and  _500
REMARK  200  A    between atoms: _509  and  _511
REMARK  201  A    between atoms: _511  and  _512
REMARK  202  A    between atoms: _511  and  _514
REMARK  203  A    between atoms: _516  and  _518
REMARK  204  A    between atoms: _518  and  _519
REMARK  205  A    between atoms: _518  and  _521
REMARK  206  A    between atoms: _521  and  _522
REMARK  207  A    between atoms: _527  and  _529
REMARK  208  A    between atoms: _529  and  _530
REMARK  209  A    between atoms: _529  and  _532
REMARK  210  A    between atoms: _532  and  _533
REMARK  211  A    between atoms: _533  and  _534
REMARK  212  A    between atoms: _534  and  _535
REMARK  213  A    between atoms: _535  and  _536
REMARK  214  A    between atoms: _540  and  _542
REMARK  215  A    between atoms: _542  and  _543
REMARK  216  A    between atoms: _542  and  _545
REMARK  217  A    between atoms: _545  and  _546
REMARK  218  A    between atoms: _549  and  _551
REMARK  219  A    between atoms: _551  and  _552
REMARK  220  A    between atoms: _551  and  _554
REMARK  221  A    between atoms: _557  and  _559
REMARK  222  A    between atoms: _559  and  _560
REMARK  223  A    between atoms: _559  and  _562
REMARK  224  A    between atoms: _562  and  _563
REMARK  225  A    between atoms: _563  and  _565
REMARK  226  A    between atoms: _565  and  ZN_690
REMARK  227  A    between atoms: _566  and  _568
REMARK  228  A    between atoms: _568  and  _569
REMARK  229  A    between atoms: _568  and  _571
REMARK  230  A    between atoms: _571  and  _572
REMARK  231  A    between atoms: _572  and  ZN_690
REMARK  232  A    between atoms: _573  and  _575
REMARK  233  A    between atoms: _575  and  _576
REMARK  234  A    between atoms: _575  and  _578
REMARK  235  A    between atoms: _578  and  _579
REMARK  236  A    between atoms: _584  and  _585
REMARK  237  A    between atoms: _587  and  _589
REMARK  238  A    between atoms: _589  and  _590
REMARK  239  A    between atoms: _589  and  _592
REMARK  240  A    between atoms: _592  and  _593
REMARK  241  A    between atoms: _599  and  _601
REMARK  242  A    between atoms: _601  and  _602
REMARK  243  A    between atoms: _601  and  _604
REMARK  244  A    between atoms: _604  and  _605
REMARK  245  A    between atoms: _615  and  _617
REMARK  246  A    between atoms: _617  and  _618
REMARK  247  A    between atoms: _617  and  _620
REMARK  248  A    between atoms: _620  and  _621
REMARK  249  A    between atoms: _621  and  _622
REMARK  250  A    between atoms: _627  and  _629
REMARK  251  A    between atoms: _629  and  _630
REMARK  252  A    between atoms: _629  and  _632
REMARK  253  A    between atoms: _632  and  _633
REMARK  254  A    between atoms: _636  and  _638
REMARK  255  A    between atoms: _638  and  _639
REMARK  256  A    between atoms: _638  and  _641
REMARK  257  A    between atoms: _641  and  _642
REMARK  258  A    between atoms: _642  and  _643
REMARK  259  A    between atoms: _643  and  _644
REMARK  260  A    between atoms: _644  and  _645
REMARK  261  A    between atoms: _649  and  _651
REMARK  262  A    between atoms: _651  and  _652
REMARK  263  A    between atoms: _651  and  _654
REMARK  264  A    between atoms: _654  and  _655
REMARK  265  A    between atoms: _655  and  _656
REMARK  266  A    between atoms: _656  and  _657
REMARK  267  A    between atoms: _657  and  _658
REMARK  268  A    between atoms: _662  and  _664
REMARK  269  A    between atoms: _664  and  _665
REMARK  270  A    between atoms: _664  and  _667
REMARK  271  A    between atoms: _667  and  _668
REMARK  272  A    between atoms: _673  and  _674
REMARK  273  A    between atoms: _676  and  _678
REMARK  274  A    between atoms: _678  and  _679
REMARK  275  A    between atoms: _678  and  _681
REMARK  276  A    between atoms: _681  and  _682
REMARK  277  A    between atoms: _687  and  _688
REMARK                            x       y       z     vdW  Elec       q    Type
REMARK                         _______ _______ _______ _____ _____    ______ ____
ROOT
ATOM      1  O   HOH     1     204.973 124.800  37.344  0.00  0.00    +0.000 OA
ENDROOT
TORSDOF 0
REMARK  Name = ../refined-set-2016/1o1s/1o1s_pocket.pdb
REMARK  277 active torsions:
REMARK  status: ('A' for Active; 'I' for Inactive)
REMARK    1  A    between atoms: _1  and  _3
REMARK    2  A    between atoms: _3  and  _4
REMARK    3  A    between atoms: _7  and  _9
REMARK    4  A    between atoms: _9  and  _10
REMARK    5  A    between atoms: _9  and  _12
REMARK    6  A    between atoms: _12  and  _13
REMARK    7  A    between atoms: _18  and  _19
REMARK    8  A    between atoms: _21  and  _23
REMARK    9  A    between atoms: _23  and  _24
REMARK   10  A    between atoms: _23  and  _26
REMARK   11  A    between atoms: _26  and  _27
REMARK   12  A    between atoms: _27  and  _28
REMARK   13  A    between atoms: _28  and  _29
REMARK   14  A    between atoms: _29  and  _30
REMARK   15  A    between atoms: _34  and  _36
REMARK   16  A    between atoms: _36  and  _37
REMARK   17  A    between atoms: _36  and  _39
REMARK   18  A    between atoms: _39  and  _40
REMARK   19  A    between atoms: _45  and  _47
REMARK   20  A    between atoms: _47  and  _48
REMARK   21  A    between atoms: _47  and  _50
REMARK   22  A    between atoms: _50  and  _51
REMARK   23  A    between atoms: _56  and  _57
REMARK   24  A    between atoms: _59  and  _61
REMARK   25  A    between atoms: _61  and  _62
REMARK   26  A    between atoms: _61  and  _64
REMARK   27  A    between atoms: _64  and  _65
REMARK   28  A    between atoms: _65  and  _66
REMARK   29  A    between atoms: _71  and  _73
REMARK   30  A    between atoms: _73  and  _74
REMARK   31  A    between atoms: _73  and  _76
REMARK   32  A    between atoms: _76  and  _77
REMARK   33  A    between atoms: _80  and  _82
REMARK   34  A    between atoms: _82  and  _83
REMARK   35  A    between atoms: _82  and  _85
REMARK   36  A    between atoms: _85  and  _86
REMARK   37  A    between atoms: _86  and  _87
REMARK   38  A    between atoms: _87  and  _88
REMARK   39  A    between atoms: _88  and  _89
REMARK   40  A    between atoms: _93  and  _95
REMARK   41  A    between atoms: _95  and  _96
REMARK   42  A    between atoms: _95  and  _98
REMARK   43  A    between atoms: _98  and  _99
REMARK   44  A    between atoms: _104  and  _106
REMARK   45  A    between atoms: _106  and  _107
REMARK   46  A    between atoms: _106  and  _109
REMARK   47  A    between atoms: _109  and  _110
REMARK   48  A    between atoms: _115  and  _116
REMARK   49  A    between atoms: _118  and  _120
REMARK   50  A    between atoms: _120  and  _121
REMARK   51  A    between atoms: _120  and  _123
REMARK   52  A    between atoms: _123  and  _124
REMARK   53  A    between atoms: _129  and  _131
REMARK   54  A    between atoms: _131  and  _132
REMARK   55  A    between atoms: _135  and  _137
REMARK   56  A    between atoms: _137  and  _138
REMARK   57  A    between atoms: _137  and  _140
REMARK   58  A    between atoms: _140  and  _141
REMARK   59  A    between atoms: _141  and  _142
REMARK   60  A    between atoms: _147  and  _149
REMARK   61  A    between atoms: _149  and  _150
REMARK   62  A    between atoms: _149  and  _152
REMARK   63  A    between atoms: _152  and  _153
REMARK   64  A    between atoms: _155  and  _157
REMARK   65  A    between atoms: _157  and  _158
REMARK   66  A    between atoms: _157  and  _160
REMARK   67  A    between atoms: _160  and  _161
REMARK   68  A    between atoms: _164  and  _166
REMARK   69  A    between atoms: _166  and  _167
REMARK   70  A    between atoms: _170  and  _172
REMARK   71  A    between atoms: _172  and  _173
REMARK   72  A    between atoms: _172  and  _175
REMARK   73  A    between atoms: _175  and  _176
REMARK   74  A    between atoms: _178  and  _180
REMARK   75  A    between atoms: _180  and  _181
REMARK   76  A    between atoms: _180  and  _183
REMARK   77  A    between atoms: _183  and  _184
REMARK   78  A    between atoms: _194  and  _196
REMARK   79  A    between atoms: _196  and  _197
REMARK   80  A    between atoms: _196  and  _199
REMARK   81  A    between atoms: _199  and  _200
REMARK   82  A    between atoms: _210  and  _212
REMARK   83  A    between atoms: _212  and  _213
REMARK   84  A    between atoms: _212  and  _215
REMARK   85  A    between atoms: _215  and  _216
REMARK   86  A    between atoms: _221  and  _223
REMARK   87  A    between atoms: _223  and  _224
REMARK   88  A    between atoms: _223  and  _226
REMARK   89  A    between atoms: _226  and  _227
REMARK   90  A    between atoms: _230  and  _232
REMARK   91  A    between atoms: _232  and  _233
REMARK   92  A    between atoms: _237  and  _238
REMARK   93  A    between atoms: _243  and  _245
REMARK   94  A    between atoms: _245  and  _246
REMARK   95  A    between atoms: _245  and  _248
REMARK   96  A    between atoms: _248  and  _249
REMARK   97  A    between atoms: _252  and  _254
REMARK   98  A    between atoms: _254  and  _255
REMARK   99  A    between atoms: _254  and  _257
REMARK  100  A    between atoms: _257  and  _258
REMARK  101  A    between atoms: _263  and  _264
REMARK  102  A    between atoms: _266  and  _268
REMARK  103  A    between atoms: _268  and  _269
REMARK  104  A    between atoms: _272  and  _274
REMARK  105  A    between atoms: _274  and  _275
REMARK  106  A    between atoms: _274  and  _277
REMARK  107  A    between atoms: _277  and  _278
REMARK  108  A    between atoms: _278  and  _279
REMARK  109  A    between atoms: _281  and  _283
REMARK  110  A    between atoms: _283  and  _284
REMARK  111  A    between atoms: _283  and  _286
REMARK  112  A    between atoms: _286  and  _287
REMARK  113  A    between atoms: _292  and  _294
REMARK  114  A    between atoms: _294  and  _295
REMARK  115  A    between atoms: _294  and  _297
REMARK  116  A    between atoms: _297  and  _298
REMARK  117  A    between atoms: _298  and  _299
REMARK  118  A    between atoms: _302  and  _304
REMARK  119  A    between atoms: _304  and  _305
REMARK  120  A    between atoms: _304  and  _307
REMARK  121  A    between atoms: _307  and  _308
REMARK  122  A    between atoms: _311  and  _313
REMARK  123  A    between atoms: _313  and  _314
REMARK  124  A    between atoms: _313  and  _316
REMARK  125  A    between atoms: _319  and  _321
REMARK  126  A    between atoms: _321  and  _322
REMARK  127  A    between atoms: _321  and  _324
REMARK  128  A    between atoms: _324  and  _325
REMARK  129  A    between atoms: _325  and  _326
REMARK  130  A    between atoms: _326  and  _327
REMARK  131  A    between atoms: _336  and  _338
REMARK  132  A    between atoms: _338  and  _339
REMARK  133  A    between atoms: _338  and  _341
REMARK  134  A    between atoms: _341  and  _342
REMARK  135  A    between atoms: _344  and  _346
REMARK  136  A    between atoms: _346  and  _347
REMARK  137  A    between atoms: _346  and  _349
REMARK  138  A    between atoms: _349  and  _350
REMARK  139  A    between atoms: _355  and  _356
REMARK  140  A    between atoms: _358  and  _360
REMARK  141  A    between atoms: _360  and  _361
REMARK  142  A    between atoms: _360  and  _363
REMARK  143  A    between atoms: _365  and  _367
REMARK  144  A    between atoms: _367  and  _368
REMARK  145  A    between atoms: _370  and  _372
REMARK  146  A    between atoms: _372  and  _373
REMARK  147  A    between atoms: _372  and  _375
REMARK  148  A    between atoms: _375  and  _376
REMARK  149  A    between atoms: _376  and  _377
REMARK  150  A    between atoms: _379  and  _381
REMARK  151  A    between atoms: _381  and  _382
REMARK  152  A    between atoms: _381  and  _384
REMARK  153  A    between atoms: _384  and  _385
REMARK  154  A    between atoms: _385  and  _386
REMARK  155  A    between atoms: _389  and  _391
REMARK  156  A    between atoms: _391  and  _392
REMARK  157  A    between atoms: _395  and  _397
REMARK  158  A    between atoms: _397  and  _398
REMARK  159  A    between atoms: _397  and  _400
REMARK  160  A    between atoms: _400  and  _401
REMARK  161  A    between atoms: _406  and  _408
REMARK  162  A    between atoms: _408  and  _409
REMARK  163  A    between atoms: _411  and  _413
REMARK  164  A    between atoms: _413  and  _414
REMARK  165  A    between atoms: _416  and  _418
REMARK  166  A    between atoms: _418  and  _419
REMARK  167  A    between atoms: _418  and  _421
REMARK  168  A    between atoms: _421  and  _422
REMARK  169  A    between atoms: _427  and  _428
REMARK  170  A    between atoms: _430  and  _432
REMARK  171  A    between atoms: _432  and  _433
REMARK  172  A    between atoms: _432  and  _435
REMARK  173  A    between atoms: _435  and  _436
REMARK  174  A    between atoms: _439  and  _441
REMARK  175  A    between atoms: _441  and  _442
REMARK  176  A    between atoms: _441  and  _444
REMARK  177  A    between atoms: _444  and  _445
REMARK  178  A    between atoms: _451  and  _453
REMARK  179  A    between atoms: _453  and  _454
REMARK  180  A    between atoms: _453  and  _456
REMARK  181  A    between atoms: _458  and  _460
REMARK  182  A    between atoms: _460  and  _461
REMARK  183  A    between atoms: _463  and  _465
REMARK  184  A    between atoms: _465  and  _466
REMARK  185  A    between atoms: _465  and  _468
REMARK  186  A    between atoms: _468  and  _469
REMARK  187  A    between atoms: _475  and  _477
REMARK  188  A    between atoms: _477  and  _478
REMARK  189  A    between atoms: _477  and  _480
REMARK  190  A    between atoms: _480  and  _481
REMARK  191  A    between atoms: _481  and  _482
REMARK  192  A    between atoms: _487  and  _489
REMARK  193  A    between atoms: _489  and  _490
REMARK  194  A    between atoms: _492  and  _494
REMARK  195  A    between atoms: _494  and  _495
REMARK  196  A    between atoms: _494  and  _497
REMARK  197  A    between atoms: _497  and  _498
REMARK  198  A    between atoms: _498  and  _499
REMARK  199  A    between atoms: _499  and  _500
REMARK  200  A    between atoms: _509  and  _511
REMARK  201  A    between atoms: _511  and  _512
REMARK  202  A    between atoms: _511  and  _514
REMARK  203  A    between atoms: _516  and  _518
REMARK  204  A    between atoms: _518  and  _519
REMARK  205  A    between atoms: _518  and  _521
REMARK  206  A    between atoms: _521  and  _522
REMARK  207  A    between atoms: _527  and  _529
REMARK  208  A    between atoms: _529  and  _530
REMARK  209  A    between atoms: _529  and  _532
REMARK  210  A    between atoms: _532  and  _533
REMARK  211  A    between atoms: _533  and  _534
REMARK  212  A    between atoms: _534  and  _535
REMARK  213  A    between atoms: _535  and  _536
REMARK  214  A    between atoms: _540  and  _542
REMARK  215  A    between atoms: _542  and  _543
REMARK  216  A    between atoms: _542  and  _545
REMARK  217  A    between atoms: _545  and  _546
REMARK  218  A    between atoms: _549  and  _551
REMARK  219  A    between atoms: _551  and  _552
REMARK  220  A    between atoms: _551  and  _554
REMARK  221  A    between atoms: _557  and  _559
REMARK  222  A    between atoms: _559  and  _560
REMARK  223  A    between atoms: _559  and  _562
REMARK  224  A    between atoms: _562  and  _563
REMARK  225  A    between atoms: _563  and  _565
REMARK  226  A    between atoms: _565  and  ZN_690
REMARK  227  A    between atoms: _566  and  _568
REMARK  228  A    between atoms: _568  and  _569
REMARK  229  A    between atoms: _568  and  _571
REMARK  230  A    between atoms: _571  and  _572
REMARK  231  A    between atoms: _572  and  ZN_690
REMARK  232  A    between atoms: _573  and  _575
REMARK  233  A    between atoms: _575  and  _576
REMARK  234  A    between atoms: _575  and  _578
REMARK  235  A    between atoms: _578  and  _579
REMARK  236  A    between atoms: _584  and  _585
REMARK  237  A    between atoms: _587  and  _589
REMARK  238  A    between atoms: _589  and  _590
REMARK  239  A    between atoms: _589  and  _592
REMARK  240  A    between atoms: _592  and  _593
REMARK  241  A    between atoms: _599  and  _601
REMARK  242  A    between atoms: _601  and  _602
REMARK  243  A    between atoms: _601  and  _604
REMARK  244  A    between atoms: _604  and  _605
REMARK  245  A    between atoms: _615  and  _617
REMARK  246  A    between atoms: _617  and  _618
REMARK  247  A    between atoms: _617  and  _620
REMARK  248  A    between atoms: _620  and  _621
REMARK  249  A    between atoms: _621  and  _622
REMARK  250  A    between atoms: _627  and  _629
REMARK  251  A    between atoms: _629  and  _630
REMARK  252  A    between atoms: _629  and  _632
REMARK  253  A    between atoms: _632  and  _633
REMARK  254  A    between atoms: _636  and  _638
REMARK  255  A    between atoms: _638  and  _639
REMARK  256  A    between atoms: _638  and  _641
REMARK  257  A    between atoms: _641  and  _642
REMARK  258  A    between atoms: _642  and  _643
REMARK  259  A    between atoms: _643  and  _644
REMARK  260  A    between atoms: _644  and  _645
REMARK  261  A    between atoms: _649  and  _651
REMARK  262  A    between atoms: _651  and  _652
REMARK  263  A    between atoms: _651  and  _654
REMARK  264  A    between atoms: _654  and  _655
REMARK  265  A    between atoms: _655  and  _656
REMARK  266  A    between atoms: _656  and  _657
REMARK  267  A    between atoms: _657  and  _658
REMARK  268  A    between atoms: _662  and  _664
REMARK  269  A    between atoms: _664  and  _665
REMARK  270  A    between atoms: _664  and  _667
REMARK  271  A    between atoms: _667  and  _668
REMARK  272  A    between atoms: _673  and  _674
REMARK  273  A    between atoms: _676  and  _678
REMARK  274  A    between atoms: _678  and  _679
REMARK  275  A    between atoms: _678  and  _681
REMARK  276  A    between atoms: _681  and  _682
REMARK  277  A    between atoms: _687  and  _688
REMARK                            x       y       z     vdW  Elec       q    Type
REMARK                         _______ _______ _______ _____ _____    ______ ____
ROOT
ATOM      1  O   HOH     1     200.589 130.500  28.652  0.00  0.00    +0.000 OA
ENDROOT
TORSDOF 0
REMARK  Name = ../refined-set-2016/1o1s/1o1s_pocket.pdb
REMARK  277 active torsions:
REMARK  status: ('A' for Active; 'I' for Inactive)
REMARK    1  A    between atoms: _1  and  _3
REMARK    2  A    between atoms: _3  and  _4
REMARK    3  A    between atoms: _7  and  _9
REMARK    4  A    between atoms: _9  and  _10
REMARK    5  A    between atoms: _9  and  _12
REMARK    6  A    between atoms: _12  and  _13
REMARK    7  A    between atoms: _18  and  _19
REMARK    8  A    between atoms: _21  and  _23
REMARK    9  A    between atoms: _23  and  _24
REMARK   10  A    between atoms: _23  and  _26
REMARK   11  A    between atoms: _26  and  _27
REMARK   12  A    between atoms: _27  and  _28
REMARK   13  A    between atoms: _28  and  _29
REMARK   14  A    between atoms: _29  and  _30
REMARK   15  A    between atoms: _34  and  _36
REMARK   16  A    between atoms: _36  and  _37
REMARK   17  A    between atoms: _36  and  _39
REMARK   18  A    between atoms: _39  and  _40
REMARK   19  A    between atoms: _45  and  _47
REMARK   20  A    between atoms: _47  and  _48
REMARK   21  A    between atoms: _47  and  _50
REMARK   22  A    between atoms: _50  and  _51
REMARK   23  A    between atoms: _56  and  _57
REMARK   24  A    between atoms: _59  and  _61
REMARK   25  A    between atoms: _61  and  _62
REMARK   26  A    between atoms: _61  and  _64
REMARK   27  A    between atoms: _64  and  _65
REMARK   28  A    between atoms: _65  and  _66
REMARK   29  A    between atoms: _71  and  _73
REMARK   30  A    between atoms: _73  and  _74
REMARK   31  A    between atoms: _73  and  _76
REMARK   32  A    between atoms: _76  and  _77
REMARK   33  A    between atoms: _80  and  _82
REMARK   34  A    between atoms: _82  and  _83
REMARK   35  A    between atoms: _82  and  _85
REMARK   36  A    between atoms: _85  and  _86
REMARK   37  A    between atoms: _86  and  _87
REMARK   38  A    between atoms: _87  and  _88
REMARK   39  A    between atoms: _88  and  _89
REMARK   40  A    between atoms: _93  and  _95
REMARK   41  A    between atoms: _95  and  _96
REMARK   42  A    between atoms: _95  and  _98
REMARK   43  A    between atoms: _98  and  _99
REMARK   44  A    between atoms: _104  and  _106
REMARK   45  A    between atoms: _106  and  _107
REMARK   46  A    between atoms: _106  and  _109
REMARK   47  A    between atoms: _109  and  _110
REMARK   48  A    between atoms: _115  and  _116
REMARK   49  A    between atoms: _118  and  _120
REMARK   50  A    between atoms: _120  and  _121
REMARK   51  A    between atoms: _120  and  _123
REMARK   52  A    between atoms: _123  and  _124
REMARK   53  A    between atoms: _129  and  _131
REMARK   54  A    between atoms: _131  and  _132
REMARK   55  A    between atoms: _135  and  _137
REMARK   56  A    between atoms: _137  and  _138
REMARK   57  A    between atoms: _137  and  _140
REMARK   58  A    between atoms: _140  and  _141
REMARK   59  A    between atoms: _141  and  _142
REMARK   60  A    between atoms: _147  and  _149
REMARK   61  A    between atoms: _149  and  _150
REMARK   62  A    between atoms: _149  and  _152
REMARK   63  A    between atoms: _152  and  _153
REMARK   64  A    between atoms: _155  and  _157
REMARK   65  A    between atoms: _157  and  _158
REMARK   66  A    between atoms: _157  and  _160
REMARK   67  A    between atoms: _160  and  _161
REMARK   68  A    between atoms: _164  and  _166
REMARK   69  A    between atoms: _166  and  _167
REMARK   70  A    between atoms: _170  and  _172
REMARK   71  A    between atoms: _172  and  _173
REMARK   72  A    between atoms: _172  and  _175
REMARK   73  A    between atoms: _175  and  _176
REMARK   74  A    between atoms: _178  and  _180
REMARK   75  A    between atoms: _180  and  _181
REMARK   76  A    between atoms: _180  and  _183
REMARK   77  A    between atoms: _183  and  _184
REMARK   78  A    between atoms: _194  and  _196
REMARK   79  A    between atoms: _196  and  _197
REMARK   80  A    between atoms: _196  and  _199
REMARK   81  A    between atoms: _199  and  _200
REMARK   82  A    between atoms: _210  and  _212
REMARK   83  A    between atoms: _212  and  _213
REMARK   84  A    between atoms: _212  and  _215
REMARK   85  A    between atoms: _215  and  _216
REMARK   86  A    between atoms: _221  and  _223
REMARK   87  A    between atoms: _223  and  _224
REMARK   88  A    between atoms: _223  and  _226
REMARK   89  A    between atoms: _226  and  _227
REMARK   90  A    between atoms: _230  and  _232
REMARK   91  A    between atoms: _232  and  _233
REMARK   92  A    between atoms: _237  and  _238
REMARK   93  A    between atoms: _243  and  _245
REMARK   94  A    between atoms: _245  and  _246
REMARK   95  A    between atoms: _245  and  _248
REMARK   96  A    between atoms: _248  and  _249
REMARK   97  A    between atoms: _252  and  _254
REMARK   98  A    between atoms: _254  and  _255
REMARK   99  A    between atoms: _254  and  _257
REMARK  100  A    between atoms: _257  and  _258
REMARK  101  A    between atoms: _263  and  _264
REMARK  102  A    between atoms: _266  and  _268
REMARK  103  A    between atoms: _268  and  _269
REMARK  104  A    between atoms: _272  and  _274
REMARK  105  A    between atoms: _274  and  _275
REMARK  106  A    between atoms: _274  and  _277
REMARK  107  A    between atoms: _277  and  _278
REMARK  108  A    between atoms: _278  and  _279
REMARK  109  A    between atoms: _281  and  _283
REMARK  110  A    between atoms: _283  and  _284
REMARK  111  A    between atoms: _283  and  _286
REMARK  112  A    between atoms: _286  and  _287
REMARK  113  A    between atoms: _292  and  _294
REMARK  114  A    between atoms: _294  and  _295
REMARK  115  A    between atoms: _294  and  _297
REMARK  116  A    between atoms: _297  and  _298
REMARK  117  A    between atoms: _298  and  _299
REMARK  118  A    between atoms: _302  and  _304
REMARK  119  A    between atoms: _304  and  _305
REMARK  120  A    between atoms: _304  and  _307
REMARK  121  A    between atoms: _307  and  _308
REMARK  122  A    between atoms: _311  and  _313
REMARK  123  A    between atoms: _313  and  _314
REMARK  124  A    between atoms: _313  and  _316
REMARK  125  A    between atoms: _319  and  _321
REMARK  126  A    between atoms: _321  and  _322
REMARK  127  A    between atoms: _321  and  _324
REMARK  128  A    between atoms: _324  and  _325
REMARK  129  A    between atoms: _325  and  _326
REMARK  130  A    between atoms: _326  and  _327
REMARK  131  A    between atoms: _336  and  _338
REMARK  132  A    between atoms: _338  and  _339
REMARK  133  A    between atoms: _338  and  _341
REMARK  134  A    between atoms: _341  and  _342
REMARK  135  A    between atoms: _344  and  _346
REMARK  136  A    between atoms: _346  and  _347
REMARK  137  A    between atoms: _346  and  _349
REMARK  138  A    between atoms: _349  and  _350
REMARK  139  A    between atoms: _355  and  _356
REMARK  140  A    between atoms: _358  and  _360
REMARK  141  A    between atoms: _360  and  _361
REMARK  142  A    between atoms: _360  and  _363
REMARK  143  A    between atoms: _365  and  _367
REMARK  144  A    between atoms: _367  and  _368
REMARK  145  A    between atoms: _370  and  _372
REMARK  146  A    between atoms: _372  and  _373
REMARK  147  A    between atoms: _372  and  _375
REMARK  148  A    between atoms: _375  and  _376
REMARK  149  A    between atoms: _376  and  _377
REMARK  150  A    between atoms: _379  and  _381
REMARK  151  A    between atoms: _381  and  _382
REMARK  152  A    between atoms: _381  and  _384
REMARK  153  A    between atoms: _384  and  _385
REMARK  154  A    between atoms: _385  and  _386
REMARK  155  A    between atoms: _389  and  _391
REMARK  156  A    between atoms: _391  and  _392
REMARK  157  A    between atoms: _395  and  _397
REMARK  158  A    between atoms: _397  and  _398
REMARK  159  A    between atoms: _397  and  _400
REMARK  160  A    between atoms: _400  and  _401
REMARK  161  A    between atoms: _406  and  _408
REMARK  162  A    between atoms: _408  and  _409
REMARK  163  A    between atoms: _411  and  _413
REMARK  164  A    between atoms: _413  and  _414
REMARK  165  A    between atoms: _416  and  _418
REMARK  166  A    between atoms: _418  and  _419
REMARK  167  A    between atoms: _418  and  _421
REMARK  168  A    between atoms: _421  and  _422
REMARK  169  A    between atoms: _427  and  _428
REMARK  170  A    between atoms: _430  and  _432
REMARK  171  A    between atoms: _432  and  _433
REMARK  172  A    between atoms: _432  and  _435
REMARK  173  A    between atoms: _435  and  _436
REMARK  174  A    between atoms: _439  and  _441
REMARK  175  A    between atoms: _441  and  _442
REMARK  176  A    between atoms: _441  and  _444
REMARK  177  A    between atoms: _444  and  _445
REMARK  178  A    between atoms: _451  and  _453
REMARK  179  A    between atoms: _453  and  _454
REMARK  180  A    between atoms: _453  and  _456
REMARK  181  A    between atoms: _458  and  _460
REMARK  182  A    between atoms: _460  and  _461
REMARK  183  A    between atoms: _463  and  _465
REMARK  184  A    between atoms: _465  and  _466
REMARK  185  A    between atoms: _465  and  _468
REMARK  186  A    between atoms: _468  and  _469
REMARK  187  A    between atoms: _475  and  _477
REMARK  188  A    between atoms: _477  and  _478
REMARK  189  A    between atoms: _477  and  _480
REMARK  190  A    between atoms: _480  and  _481
REMARK  191  A    between atoms: _481  and  _482
REMARK  192  A    between atoms: _487  and  _489
REMARK  193  A    between atoms: _489  and  _490
REMARK  194  A    between atoms: _492  and  _494
REMARK  195  A    between atoms: _494  and  _495
REMARK  196  A    between atoms: _494  and  _497
REMARK  197  A    between atoms: _497  and  _498
REMARK  198  A    between atoms: _498  and  _499
REMARK  199  A    between atoms: _499  and  _500
REMARK  200  A    between atoms: _509  and  _511
REMARK  201  A    between atoms: _511  and  _512
REMARK  202  A    between atoms: _511  and  _514
REMARK  203  A    between atoms: _516  and  _518
REMARK  204  A    between atoms: _518  and  _519
REMARK  205  A    between atoms: _518  and  _521
REMARK  206  A    between atoms: _521  and  _522
REMARK  207  A    between atoms: _527  and  _529
REMARK  208  A    between atoms: _529  and  _530
REMARK  209  A    between atoms: _529  and  _532
REMARK  210  A    between atoms: _532  and  _533
REMARK  211  A    between atoms: _533  and  _534
REMARK  212  A    between atoms: _534  and  _535
REMARK  213  A    between atoms: _535  and  _536
REMARK  214  A    between atoms: _540  and  _542
REMARK  215  A    between atoms: _542  and  _543
REMARK  216  A    between atoms: _542  and  _545
REMARK  217  A    between atoms: _545  and  _546
REMARK  218  A    between atoms: _549  and  _551
REMARK  219  A    between atoms: _551  and  _552
REMARK  220  A    between atoms: _551  and  _554
REMARK  221  A    between atoms: _557  and  _559
REMARK  222  A    between atoms: _559  and  _560
REMARK  223  A    between atoms: _559  and  _562
REMARK  224  A    between atoms: _562  and  _563
REMARK  225  A    between atoms: _563  and  _565
REMARK  226  A    between atoms: _565  and  ZN_690
REMARK  227  A    between atoms: _566  and  _568
REMARK  228  A    between atoms: _568  and  _569
REMARK  229  A    between atoms: _568  and  _571
REMARK  230  A    between atoms: _571  and  _572
REMARK  231  A    between atoms: _572  and  ZN_690
REMARK  232  A    between atoms: _573  and  _575
REMARK  233  A    between atoms: _575  and  _576
REMARK  234  A    between atoms: _575  and  _578
REMARK  235  A    between atoms: _578  and  _579
REMARK  236  A    between atoms: _584  and  _585
REMARK  237  A    between atoms: _587  and  _589
REMARK  238  A    between atoms: _589  and  _590
REMARK  239  A    between atoms: _589  and  _592
REMARK  240  A    between atoms: _592  and  _593
REMARK  241  A    between atoms: _599  and  _601
REMARK  242  A    between atoms: _601  and  _602
REMARK  243  A    between atoms: _601  and  _604
REMARK  244  A    between atoms: _604  and  _605
REMARK  245  A    between atoms: _615  and  _617
REMARK  246  A    between atoms: _617  and  _618
REMARK  247  A    between atoms: _617  and  _620
REMARK  248  A    between atoms: _620  and  _621
REMARK  249  A    between atoms: _621  and  _622
REMARK  250  A    between atoms: _627  and  _629
REMARK  251  A    between atoms: _629  and  _630
REMARK  252  A    between atoms: _629  and  _632
REMARK  253  A    between atoms: _632  and  _633
REMARK  254  A    between atoms: _636  and  _638
REMARK  255  A    between atoms: _638  and  _639
REMARK  256  A    between atoms: _638  and  _641
REMARK  257  A    between atoms: _641  and  _642
REMARK  258  A    between atoms: _642  and  _643
REMARK  259  A    between atoms: _643  and  _644
REMARK  260  A    between atoms: _644  and  _645
REMARK  261  A    between atoms: _649  and  _651
REMARK  262  A    between atoms: _651  and  _652
REMARK  263  A    between atoms: _651  and  _654
REMARK  264  A    between atoms: _654  and  _655
REMARK  265  A    between atoms: _655  and  _656
REMARK  266  A    between atoms: _656  and  _657
REMARK  267  A    between atoms: _657  and  _658
REMARK  268  A    between atoms: _662  and  _664
REMARK  269  A    between atoms: _664  and  _665
REMARK  270  A    between atoms: _664  and  _667
REMARK  271  A    between atoms: _667  and  _668
REMARK  272  A    between atoms: _673  and  _674
REMARK  273  A    between atoms: _676  and  _678
REMARK  274  A    between atoms: _678  and  _679
REMARK  275  A    between atoms: _678  and  _681
REMARK  276  A    between atoms: _681  and  _682
REMARK  277  A    between atoms: _687  and  _688
REMARK                            x       y       z     vdW  Elec       q    Type
REMARK                         _______ _______ _______ _____ _____    ______ ____
ROOT
ATOM      1  O   HOH     1     200.476 126.327  31.551  0.00  0.00    +0.000 OA
ENDROOT
TORSDOF 0
REMARK  Name = ../refined-set-2016/1o1s/1o1s_pocket.pdb
REMARK  277 active torsions:
REMARK  status: ('A' for Active; 'I' for Inactive)
REMARK    1  A    between atoms: _1  and  _3
REMARK    2  A    between atoms: _3  and  _4
REMARK    3  A    between atoms: _7  and  _9
REMARK    4  A    between atoms: _9  and  _10
REMARK    5  A    between atoms: _9  and  _12
REMARK    6  A    between atoms: _12  and  _13
REMARK    7  A    between atoms: _18  and  _19
REMARK    8  A    between atoms: _21  and  _23
REMARK    9  A    between atoms: _23  and  _24
REMARK   10  A    between atoms: _23  and  _26
REMARK   11  A    between atoms: _26  and  _27
REMARK   12  A    between atoms: _27  and  _28
REMARK   13  A    between atoms: _28  and  _29
REMARK   14  A    between atoms: _29  and  _30
REMARK   15  A    between atoms: _34  and  _36
REMARK   16  A    between atoms: _36  and  _37
REMARK   17  A    between atoms: _36  and  _39
REMARK   18  A    between atoms: _39  and  _40
REMARK   19  A    between atoms: _45  and  _47
REMARK   20  A    between atoms: _47  and  _48
REMARK   21  A    between atoms: _47  and  _50
REMARK   22  A    between atoms: _50  and  _51
REMARK   23  A    between atoms: _56  and  _57
REMARK   24  A    between atoms: _59  and  _61
REMARK   25  A    between atoms: _61  and  _62
REMARK   26  A    between atoms: _61  and  _64
REMARK   27  A    between atoms: _64  and  _65
REMARK   28  A    between atoms: _65  and  _66
REMARK   29  A    between atoms: _71  and  _73
REMARK   30  A    between atoms: _73  and  _74
REMARK   31  A    between atoms: _73  and  _76
REMARK   32  A    between atoms: _76  and  _77
REMARK   33  A    between atoms: _80  and  _82
REMARK   34  A    between atoms: _82  and  _83
REMARK   35  A    between atoms: _82  and  _85
REMARK   36  A    between atoms: _85  and  _86
REMARK   37  A    between atoms: _86  and  _87
REMARK   38  A    between atoms: _87  and  _88
REMARK   39  A    between atoms: _88  and  _89
REMARK   40  A    between atoms: _93  and  _95
REMARK   41  A    between atoms: _95  and  _96
REMARK   42  A    between atoms: _95  and  _98
REMARK   43  A    between atoms: _98  and  _99
REMARK   44  A    between atoms: _104  and  _106
REMARK   45  A    between atoms: _106  and  _107
REMARK   46  A    between atoms: _106  and  _109
REMARK   47  A    between atoms: _109  and  _110
REMARK   48  A    between atoms: _115  and  _116
REMARK   49  A    between atoms: _118  and  _120
REMARK   50  A    between atoms: _120  and  _121
REMARK   51  A    between atoms: _120  and  _123
REMARK   52  A    between atoms: _123  and  _124
REMARK   53  A    between atoms: _129  and  _131
REMARK   54  A    between atoms: _131  and  _132
REMARK   55  A    between atoms: _135  and  _137
REMARK   56  A    between atoms: _137  and  _138
REMARK   57  A    between atoms: _137  and  _140
REMARK   58  A    between atoms: _140  and  _141
REMARK   59  A    between atoms: _141  and  _142
REMARK   60  A    between atoms: _147  and  _149
REMARK   61  A    between atoms: _149  and  _150
REMARK   62  A    between atoms: _149  and  _152
REMARK   63  A    between atoms: _152  and  _153
REMARK   64  A    between atoms: _155  and  _157
REMARK   65  A    between atoms: _157  and  _158
REMARK   66  A    between atoms: _157  and  _160
REMARK   67  A    between atoms: _160  and  _161
REMARK   68  A    between atoms: _164  and  _166
REMARK   69  A    between atoms: _166  and  _167
REMARK   70  A    between atoms: _170  and  _172
REMARK   71  A    between atoms: _172  and  _173
REMARK   72  A    between atoms: _172  and  _175
REMARK   73  A    between atoms: _175  and  _176
REMARK   74  A    between atoms: _178  and  _180
REMARK   75  A    between atoms: _180  and  _181
REMARK   76  A    between atoms: _180  and  _183
REMARK   77  A    between atoms: _183  and  _184
REMARK   78  A    between atoms: _194  and  _196
REMARK   79  A    between atoms: _196  and  _197
REMARK   80  A    between atoms: _196  and  _199
REMARK   81  A    between atoms: _199  and  _200
REMARK   82  A    between atoms: _210  and  _212
REMARK   83  A    between atoms: _212  and  _213
REMARK   84  A    between atoms: _212  and  _215
REMARK   85  A    between atoms: _215  and  _216
REMARK   86  A    between atoms: _221  and  _223
REMARK   87  A    between atoms: _223  and  _224
REMARK   88  A    between atoms: _223  and  _226
REMARK   89  A    between atoms: _226  and  _227
REMARK   90  A    between atoms: _230  and  _232
REMARK   91  A    between atoms: _232  and  _233
REMARK   92  A    between atoms: _237  and  _238
REMARK   93  A    between atoms: _243  and  _245
REMARK   94  A    between atoms: _245  and  _246
REMARK   95  A    between atoms: _245  and  _248
REMARK   96  A    between atoms: _248  and  _249
REMARK   97  A    between atoms: _252  and  _254
REMARK   98  A    between atoms: _254  and  _255
REMARK   99  A    between atoms: _254  and  _257
REMARK  100  A    between atoms: _257  and  _258
REMARK  101  A    between atoms: _263  and  _264
REMARK  102  A    between atoms: _266  and  _268
REMARK  103  A    between atoms: _268  and  _269
REMARK  104  A    between atoms: _272  and  _274
REMARK  105  A    between atoms: _274  and  _275
REMARK  106  A    between atoms: _274  and  _277
REMARK  107  A    between atoms: _277  and  _278
REMARK  108  A    between atoms: _278  and  _279
REMARK  109  A    between atoms: _281  and  _283
REMARK  110  A    between atoms: _283  and  _284
REMARK  111  A    between atoms: _283  and  _286
REMARK  112  A    between atoms: _286  and  _287
REMARK  113  A    between atoms: _292  and  _294
REMARK  114  A    between atoms: _294  and  _295
REMARK  115  A    between atoms: _294  and  _297
REMARK  116  A    between atoms: _297  and  _298
REMARK  117  A    between atoms: _298  and  _299
REMARK  118  A    between atoms: _302  and  _304
REMARK  119  A    between atoms: _304  and  _305
REMARK  120  A    between atoms: _304  and  _307
REMARK  121  A    between atoms: _307  and  _308
REMARK  122  A    between atoms: _311  and  _313
REMARK  123  A    between atoms: _313  and  _314
REMARK  124  A    between atoms: _313  and  _316
REMARK  125  A    between atoms: _319  and  _321
REMARK  126  A    between atoms: _321  and  _322
REMARK  127  A    between atoms: _321  and  _324
REMARK  128  A    between atoms: _324  and  _325
REMARK  129  A    between atoms: _325  and  _326
REMARK  130  A    between atoms: _326  and  _327
REMARK  131  A    between atoms: _336  and  _338
REMARK  132  A    between atoms: _338  and  _339
REMARK  133  A    between atoms: _338  and  _341
REMARK  134  A    between atoms: _341  and  _342
REMARK  135  A    between atoms: _344  and  _346
REMARK  136  A    between atoms: _346  and  _347
REMARK  137  A    between atoms: _346  and  _349
REMARK  138  A    between atoms: _349  and  _350
REMARK  139  A    between atoms: _355  and  _356
REMARK  140  A    between atoms: _358  and  _360
REMARK  141  A    between atoms: _360  and  _361
REMARK  142  A    between atoms: _360  and  _363
REMARK  143  A    between atoms: _365  and  _367
REMARK  144  A    between atoms: _367  and  _368
REMARK  145  A    between atoms: _370  and  _372
REMARK  146  A    between atoms: _372  and  _373
REMARK  147  A    between atoms: _372  and  _375
REMARK  148  A    between atoms: _375  and  _376
REMARK  149  A    between atoms: _376  and  _377
REMARK  150  A    between atoms: _379  and  _381
REMARK  151  A    between atoms: _381  and  _382
REMARK  152  A    between atoms: _381  and  _384
REMARK  153  A    between atoms: _384  and  _385
REMARK  154  A    between atoms: _385  and  _386
REMARK  155  A    between atoms: _389  and  _391
REMARK  156  A    between atoms: _391  and  _392
REMARK  157  A    between atoms: _395  and  _397
REMARK  158  A    between atoms: _397  and  _398
REMARK  159  A    between atoms: _397  and  _400
REMARK  160  A    between atoms: _400  and  _401
REMARK  161  A    between atoms: _406  and  _408
REMARK  162  A    between atoms: _408  and  _409
REMARK  163  A    between atoms: _411  and  _413
REMARK  164  A    between atoms: _413  and  _414
REMARK  165  A    between atoms: _416  and  _418
REMARK  166  A    between atoms: _418  and  _419
REMARK  167  A    between atoms: _418  and  _421
REMARK  168  A    between atoms: _421  and  _422
REMARK  169  A    between atoms: _427  and  _428
REMARK  170  A    between atoms: _430  and  _432
REMARK  171  A    between atoms: _432  and  _433
REMARK  172  A    between atoms: _432  and  _435
REMARK  173  A    between atoms: _435  and  _436
REMARK  174  A    between atoms: _439  and  _441
REMARK  175  A    between atoms: _441  and  _442
REMARK  176  A    between atoms: _441  and  _444
REMARK  177  A    between atoms: _444  and  _445
REMARK  178  A    between atoms: _451  and  _453
REMARK  179  A    between atoms: _453  and  _454
REMARK  180  A    between atoms: _453  and  _456
REMARK  181  A    between atoms: _458  and  _460
REMARK  182  A    between atoms: _460  and  _461
REMARK  183  A    between atoms: _463  and  _465
REMARK  184  A    between atoms: _465  and  _466
REMARK  185  A    between atoms: _465  and  _468
REMARK  186  A    between atoms: _468  and  _469
REMARK  187  A    between atoms: _475  and  _477
REMARK  188  A    between atoms: _477  and  _478
REMARK  189  A    between atoms: _477  and  _480
REMARK  190  A    between atoms: _480  and  _481
REMARK  191  A    between atoms: _481  and  _482
REMARK  192  A    between atoms: _487  and  _489
REMARK  193  A    between atoms: _489  and  _490
REMARK  194  A    between atoms: _492  and  _494
REMARK  195  A    between atoms: _494  and  _495
REMARK  196  A    between atoms: _494  and  _497
REMARK  197  A    between atoms: _497  and  _498
REMARK  198  A    between atoms: _498  and  _499
REMARK  199  A    between atoms: _499  and  _500
REMARK  200  A    between atoms: _509  and  _511
REMARK  201  A    between atoms: _511  and  _512
REMARK  202  A    between atoms: _511  and  _514
REMARK  203  A    between atoms: _516  and  _518
REMARK  204  A    between atoms: _518  and  _519
REMARK  205  A    between atoms: _518  and  _521
REMARK  206  A    between atoms: _521  and  _522
REMARK  207  A    between atoms: _527  and  _529
REMARK  208  A    between atoms: _529  and  _530
REMARK  209  A    between atoms: _529  and  _532
REMARK  210  A    between atoms: _532  and  _533
REMARK  211  A    between atoms: _533  and  _534
REMARK  212  A    between atoms: _534  and  _535
REMARK  213  A    between atoms: _535  and  _536
REMARK  214  A    between atoms: _540  and  _542
REMARK  215  A    between atoms: _542  and  _543
REMARK  216  A    between atoms: _542  and  _545
REMARK  217  A    between atoms: _545  and  _546
REMARK  218  A    between atoms: _549  and  _551
REMARK  219  A    between atoms: _551  and  _552
REMARK  220  A    between atoms: _551  and  _554
REMARK  221  A    between atoms: _557  and  _559
REMARK  222  A    between atoms: _559  and  _560
REMARK  223  A    between atoms: _559  and  _562
REMARK  224  A    between atoms: _562  and  _563
REMARK  225  A    between atoms: _563  and  _565
REMARK  226  A    between atoms: _565  and  ZN_690
REMARK  227  A    between atoms: _566  and  _568
REMARK  228  A    between atoms: _568  and  _569
REMARK  229  A    between atoms: _568  and  _571
REMARK  230  A    between atoms: _571  and  _572
REMARK  231  A    between atoms: _572  and  ZN_690
REMARK  232  A    between atoms: _573  and  _575
REMARK  233  A    between atoms: _575  and  _576
REMARK  234  A    between atoms: _575  and  _578
REMARK  235  A    between atoms: _578  and  _579
REMARK  236  A    between atoms: _584  and  _585
REMARK  237  A    between atoms: _587  and  _589
REMARK  238  A    between atoms: _589  and  _590
REMARK  239  A    between atoms: _589  and  _592
REMARK  240  A    between atoms: _592  and  _593
REMARK  241  A    between atoms: _599  and  _601
REMARK  242  A    between atoms: _601  and  _602
REMARK  243  A    between atoms: _601  and  _604
REMARK  244  A    between atoms: _604  and  _605
REMARK  245  A    between atoms: _615  and  _617
REMARK  246  A    between atoms: _617  and  _618
REMARK  247  A    between atoms: _617  and  _620
REMARK  248  A    between atoms: _620  and  _621
REMARK  249  A    between atoms: _621  and  _622
REMARK  250  A    between atoms: _627  and  _629
REMARK  251  A    between atoms: _629  and  _630
REMARK  252  A    between atoms: _629  and  _632
REMARK  253  A    between atoms: _632  and  _633
REMARK  254  A    between atoms: _636  and  _638
REMARK  255  A    between atoms: _638  and  _639
REMARK  256  A    between atoms: _638  and  _641
REMARK  257  A    between atoms: _641  and  _642
REMARK  258  A    between atoms: _642  and  _643
REMARK  259  A    between atoms: _643  and  _644
REMARK  260  A    between atoms: _644  and  _645
REMARK  261  A    between atoms: _649  and  _651
REMARK  262  A    between atoms: _651  and  _652
REMARK  263  A    between atoms: _651  and  _654
REMARK  264  A    between atoms: _654  and  _655
REMARK  265  A    between atoms: _655  and  _656
REMARK  266  A    between atoms: _656  and  _657
REMARK  267  A    between atoms: _657  and  _658
REMARK  268  A    between atoms: _662  and  _664
REMARK  269  A    between atoms: _664  and  _665
REMARK  270  A    between atoms: _664  and  _667
REMARK  271  A    between atoms: _667  and  _668
REMARK  272  A    between atoms: _673  and  _674
REMARK  273  A    between atoms: _676  and  _678
REMARK  274  A    between atoms: _678  and  _679
REMARK  275  A    between atoms: _678  and  _681
REMARK  276  A    between atoms: _681  and  _682
REMARK  277  A    between atoms: _687  and  _688
REMARK                            x       y       z     vdW  Elec       q    Type
REMARK                         _______ _______ _______ _____ _____    ______ ____
ROOT
ATOM      1  O   HOH     1     203.738 127.259  37.121  0.00  0.00    +0.000 OA
ENDROOT
TORSDOF 0
REMARK  Name = ../refined-set-2016/1o1s/1o1s_pocket.pdb
REMARK  277 active torsions:
REMARK  status: ('A' for Active; 'I' for Inactive)
REMARK    1  A    between atoms: _1  and  _3
REMARK    2  A    between atoms: _3  and  _4
REMARK    3  A    between atoms: _7  and  _9
REMARK    4  A    between atoms: _9  and  _10
REMARK    5  A    between atoms: _9  and  _12
REMARK    6  A    between atoms: _12  and  _13
REMARK    7  A    between atoms: _18  and  _19
REMARK    8  A    between atoms: _21  and  _23
REMARK    9  A    between atoms: _23  and  _24
REMARK   10  A    between atoms: _23  and  _26
REMARK   11  A    between atoms: _26  and  _27
REMARK   12  A    between atoms: _27  and  _28
REMARK   13  A    between atoms: _28  and  _29
REMARK   14  A    between atoms: _29  and  _30
REMARK   15  A    between atoms: _34  and  _36
REMARK   16  A    between atoms: _36  and  _37
REMARK   17  A    between atoms: _36  and  _39
REMARK   18  A    between atoms: _39  and  _40
REMARK   19  A    between atoms: _45  and  _47
REMARK   20  A    between atoms: _47  and  _48
REMARK   21  A    between atoms: _47  and  _50
REMARK   22  A    between atoms: _50  and  _51
REMARK   23  A    between atoms: _56  and  _57
REMARK   24  A    between atoms: _59  and  _61
REMARK   25  A    between atoms: _61  and  _62
REMARK   26  A    between atoms: _61  and  _64
REMARK   27  A    between atoms: _64  and  _65
REMARK   28  A    between atoms: _65  and  _66
REMARK   29  A    between atoms: _71  and  _73
REMARK   30  A    between atoms: _73  and  _74
REMARK   31  A    between atoms: _73  and  _76
REMARK   32  A    between atoms: _76  and  _77
REMARK   33  A    between atoms: _80  and  _82
REMARK   34  A    between atoms: _82  and  _83
REMARK   35  A    between atoms: _82  and  _85
REMARK   36  A    between atoms: _85  and  _86
REMARK   37  A    between atoms: _86  and  _87
REMARK   38  A    between atoms: _87  and  _88
REMARK   39  A    between atoms: _88  and  _89
REMARK   40  A    between atoms: _93  and  _95
REMARK   41  A    between atoms: _95  and  _96
REMARK   42  A    between atoms: _95  and  _98
REMARK   43  A    between atoms: _98  and  _99
REMARK   44  A    between atoms: _104  and  _106
REMARK   45  A    between atoms: _106  and  _107
REMARK   46  A    between atoms: _106  and  _109
REMARK   47  A    between atoms: _109  and  _110
REMARK   48  A    between atoms: _115  and  _116
REMARK   49  A    between atoms: _118  and  _120
REMARK   50  A    between atoms: _120  and  _121
REMARK   51  A    between atoms: _120  and  _123
REMARK   52  A    between atoms: _123  and  _124
REMARK   53  A    between atoms: _129  and  _131
REMARK   54  A    between atoms: _131  and  _132
REMARK   55  A    between atoms: _135  and  _137
REMARK   56  A    between atoms: _137  and  _138
REMARK   57  A    between atoms: _137  and  _140
REMARK   58  A    between atoms: _140  and  _141
REMARK   59  A    between atoms: _141  and  _142
REMARK   60  A    between atoms: _147  and  _149
REMARK   61  A    between atoms: _149  and  _150
REMARK   62  A    between atoms: _149  and  _152
REMARK   63  A    between atoms: _152  and  _153
REMARK   64  A    between atoms: _155  and  _157
REMARK   65  A    between atoms: _157  and  _158
REMARK   66  A    between atoms: _157  and  _160
REMARK   67  A    between atoms: _160  and  _161
REMARK   68  A    between atoms: _164  and  _166
REMARK   69  A    between atoms: _166  and  _167
REMARK   70  A    between atoms: _170  and  _172
REMARK   71  A    between atoms: _172  and  _173
REMARK   72  A    between atoms: _172  and  _175
REMARK   73  A    between atoms: _175  and  _176
REMARK   74  A    between atoms: _178  and  _180
REMARK   75  A    between atoms: _180  and  _181
REMARK   76  A    between atoms: _180  and  _183
REMARK   77  A    between atoms: _183  and  _184
REMARK   78  A    between atoms: _194  and  _196
REMARK   79  A    between atoms: _196  and  _197
REMARK   80  A    between atoms: _196  and  _199
REMARK   81  A    between atoms: _199  and  _200
REMARK   82  A    between atoms: _210  and  _212
REMARK   83  A    between atoms: _212  and  _213
REMARK   84  A    between atoms: _212  and  _215
REMARK   85  A    between atoms: _215  and  _216
REMARK   86  A    between atoms: _221  and  _223
REMARK   87  A    between atoms: _223  and  _224
REMARK   88  A    between atoms: _223  and  _226
REMARK   89  A    between atoms: _226  and  _227
REMARK   90  A    between atoms: _230  and  _232
REMARK   91  A    between atoms: _232  and  _233
REMARK   92  A    between atoms: _237  and  _238
REMARK   93  A    between atoms: _243  and  _245
REMARK   94  A    between atoms: _245  and  _246
REMARK   95  A    between atoms: _245  and  _248
REMARK   96  A    between atoms: _248  and  _249
REMARK   97  A    between atoms: _252  and  _254
REMARK   98  A    between atoms: _254  and  _255
REMARK   99  A    between atoms: _254  and  _257
REMARK  100  A    between atoms: _257  and  _258
REMARK  101  A    between atoms: _263  and  _264
REMARK  102  A    between atoms: _266  and  _268
REMARK  103  A    between atoms: _268  and  _269
REMARK  104  A    between atoms: _272  and  _274
REMARK  105  A    between atoms: _274  and  _275
REMARK  106  A    between atoms: _274  and  _277
REMARK  107  A    between atoms: _277  and  _278
REMARK  108  A    between atoms: _278  and  _279
REMARK  109  A    between atoms: _281  and  _283
REMARK  110  A    between atoms: _283  and  _284
REMARK  111  A    between atoms: _283  and  _286
REMARK  112  A    between atoms: _286  and  _287
REMARK  113  A    between atoms: _292  and  _294
REMARK  114  A    between atoms: _294  and  _295
REMARK  115  A    between atoms: _294  and  _297
REMARK  116  A    between atoms: _297  and  _298
REMARK  117  A    between atoms: _298  and  _299
REMARK  118  A    between atoms: _302  and  _304
REMARK  119  A    between atoms: _304  and  _305
REMARK  120  A    between atoms: _304  and  _307
REMARK  121  A    between atoms: _307  and  _308
REMARK  122  A    between atoms: _311  and  _313
REMARK  123  A    between atoms: _313  and  _314
REMARK  124  A    between atoms: _313  and  _316
REMARK  125  A    between atoms: _319  and  _321
REMARK  126  A    between atoms: _321  and  _322
REMARK  127  A    between atoms: _321  and  _324
REMARK  128  A    between atoms: _324  and  _325
REMARK  129  A    between atoms: _325  and  _326
REMARK  130  A    between atoms: _326  and  _327
REMARK  131  A    between atoms: _336  and  _338
REMARK  132  A    between atoms: _338  and  _339
REMARK  133  A    between atoms: _338  and  _341
REMARK  134  A    between atoms: _341  and  _342
REMARK  135  A    between atoms: _344  and  _346
REMARK  136  A    between atoms: _346  and  _347
REMARK  137  A    between atoms: _346  and  _349
REMARK  138  A    between atoms: _349  and  _350
REMARK  139  A    between atoms: _355  and  _356
REMARK  140  A    between atoms: _358  and  _360
REMARK  141  A    between atoms: _360  and  _361
REMARK  142  A    between atoms: _360  and  _363
REMARK  143  A    between atoms: _365  and  _367
REMARK  144  A    between atoms: _367  and  _368
REMARK  145  A    between atoms: _370  and  _372
REMARK  146  A    between atoms: _372  and  _373
REMARK  147  A    between atoms: _372  and  _375
REMARK  148  A    between atoms: _375  and  _376
REMARK  149  A    between atoms: _376  and  _377
REMARK  150  A    between atoms: _379  and  _381
REMARK  151  A    between atoms: _381  and  _382
REMARK  152  A    between atoms: _381  and  _384
REMARK  153  A    between atoms: _384  and  _385
REMARK  154  A    between atoms: _385  and  _386
REMARK  155  A    between atoms: _389  and  _391
REMARK  156  A    between atoms: _391  and  _392
REMARK  157  A    between atoms: _395  and  _397
REMARK  158  A    between atoms: _397  and  _398
REMARK  159  A    between atoms: _397  and  _400
REMARK  160  A    between atoms: _400  and  _401
REMARK  161  A    between atoms: _406  and  _408
REMARK  162  A    between atoms: _408  and  _409
REMARK  163  A    between atoms: _411  and  _413
REMARK  164  A    between atoms: _413  and  _414
REMARK  165  A    between atoms: _416  and  _418
REMARK  166  A    between atoms: _418  and  _419
REMARK  167  A    between atoms: _418  and  _421
REMARK  168  A    between atoms: _421  and  _422
REMARK  169  A    between atoms: _427  and  _428
REMARK  170  A    between atoms: _430  and  _432
REMARK  171  A    between atoms: _432  and  _433
REMARK  172  A    between atoms: _432  and  _435
REMARK  173  A    between atoms: _435  and  _436
REMARK  174  A    between atoms: _439  and  _441
REMARK  175  A    between atoms: _441  and  _442
REMARK  176  A    between atoms: _441  and  _444
REMARK  177  A    between atoms: _444  and  _445
REMARK  178  A    between atoms: _451  and  _453
REMARK  179  A    between atoms: _453  and  _454
REMARK  180  A    between atoms: _453  and  _456
REMARK  181  A    between atoms: _458  and  _460
REMARK  182  A    between atoms: _460  and  _461
REMARK  183  A    between atoms: _463  and  _465
REMARK  184  A    between atoms: _465  and  _466
REMARK  185  A    between atoms: _465  and  _468
REMARK  186  A    between atoms: _468  and  _469
REMARK  187  A    between atoms: _475  and  _477
REMARK  188  A    between atoms: _477  and  _478
REMARK  189  A    between atoms: _477  and  _480
REMARK  190  A    between atoms: _480  and  _481
REMARK  191  A    between atoms: _481  and  _482
REMARK  192  A    between atoms: _487  and  _489
REMARK  193  A    between atoms: _489  and  _490
REMARK  194  A    between atoms: _492  and  _494
REMARK  195  A    between atoms: _494  and  _495
REMARK  196  A    between atoms: _494  and  _497
REMARK  197  A    between atoms: _497  and  _498
REMARK  198  A    between atoms: _498  and  _499
REMARK  199  A    between atoms: _499  and  _500
REMARK  200  A    between atoms: _509  and  _511
REMARK  201  A    between atoms: _511  and  _512
REMARK  202  A    between atoms: _511  and  _514
REMARK  203  A    between atoms: _516  and  _518
REMARK  204  A    between atoms: _518  and  _519
REMARK  205  A    between atoms: _518  and  _521
REMARK  206  A    between atoms: _521  and  _522
REMARK  207  A    between atoms: _527  and  _529
REMARK  208  A    between atoms: _529  and  _530
REMARK  209  A    between atoms: _529  and  _532
REMARK  210  A    between atoms: _532  and  _533
REMARK  211  A    between atoms: _533  and  _534
REMARK  212  A    between atoms: _534  and  _535
REMARK  213  A    between atoms: _535  and  _536
REMARK  214  A    between atoms: _540  and  _542
REMARK  215  A    between atoms: _542  and  _543
REMARK  216  A    between atoms: _542  and  _545
REMARK  217  A    between atoms: _545  and  _546
REMARK  218  A    between atoms: _549  and  _551
REMARK  219  A    between atoms: _551  and  _552
REMARK  220  A    between atoms: _551  and  _554
REMARK  221  A    between atoms: _557  and  _559
REMARK  222  A    between atoms: _559  and  _560
REMARK  223  A    between atoms: _559  and  _562
REMARK  224  A    between atoms: _562  and  _563
REMARK  225  A    between atoms: _563  and  _565
REMARK  226  A    between atoms: _565  and  ZN_690
REMARK  227  A    between atoms: _566  and  _568
REMARK  228  A    between atoms: _568  and  _569
REMARK  229  A    between atoms: _568  and  _571
REMARK  230  A    between atoms: _571  and  _572
REMARK  231  A    between atoms: _572  and  ZN_690
REMARK  232  A    between atoms: _573  and  _575
REMARK  233  A    between atoms: _575  and  _576
REMARK  234  A    between atoms: _575  and  _578
REMARK  235  A    between atoms: _578  and  _579
REMARK  236  A    between atoms: _584  and  _585
REMARK  237  A    between atoms: _587  and  _589
REMARK  238  A    between atoms: _589  and  _590
REMARK  239  A    between atoms: _589  and  _592
REMARK  240  A    between atoms: _592  and  _593
REMARK  241  A    between atoms: _599  and  _601
REMARK  242  A    between atoms: _601  and  _602
REMARK  243  A    between atoms: _601  and  _604
REMARK  244  A    between atoms: _604  and  _605
REMARK  245  A    between atoms: _615  and  _617
REMARK  246  A    between atoms: _617  and  _618
REMARK  247  A    between atoms: _617  and  _620
REMARK  248  A    between atoms: _620  and  _621
REMARK  249  A    between atoms: _621  and  _622
REMARK  250  A    between atoms: _627  and  _629
REMARK  251  A    between atoms: _629  and  _630
REMARK  252  A    between atoms: _629  and  _632
REMARK  253  A    between atoms: _632  and  _633
REMARK  254  A    between atoms: _636  and  _638
REMARK  255  A    between atoms: _638  and  _639
REMARK  256  A    between atoms: _638  and  _641
REMARK  257  A    between atoms: _641  and  _642
REMARK  258  A    between atoms: _642  and  _643
REMARK  259  A    between atoms: _643  and  _644
REMARK  260  A    between atoms: _644  and  _645
REMARK  261  A    between atoms: _649  and  _651
REMARK  262  A    between atoms: _651  and  _652
REMARK  263  A    between atoms: _651  and  _654
REMARK  264  A    between atoms: _654  and  _655
REMARK  265  A    between atoms: _655  and  _656
REMARK  266  A    between atoms: _656  and  _657
REMARK  267  A    between atoms: _657  and  _658
REMARK  268  A    between atoms: _662  and  _664
REMARK  269  A    between atoms: _664  and  _665
REMARK  270  A    between atoms: _664  and  _667
REMARK  271  A    between atoms: _667  and  _668
REMARK  272  A    between atoms: _673  and  _674
REMARK  273  A    between atoms: _676  and  _678
REMARK  274  A    between atoms: _678  and  _679
REMARK  275  A    between atoms: _678  and  _681
REMARK  276  A    between atoms: _681  and  _682
REMARK  277  A    between atoms: _687  and  _688
REMARK                            x       y       z     vdW  Elec       q    Type
REMARK                         _______ _______ _______ _____ _____    ______ ____
ROOT
ATOM      1  O   HOH     1     183.299 129.833  24.534  0.00  0.00    +0.000 OA
ENDROOT
TORSDOF 0
REMARK  Name = ../refined-set-2016/1o1s/1o1s_pocket.pdb
REMARK  277 active torsions:
REMARK  status: ('A' for Active; 'I' for Inactive)
REMARK    1  A    between atoms: _1  and  _3
REMARK    2  A    between atoms: _3  and  _4
REMARK    3  A    between atoms: _7  and  _9
REMARK    4  A    between atoms: _9  and  _10
REMARK    5  A    between atoms: _9  and  _12
REMARK    6  A    between atoms: _12  and  _13
REMARK    7  A    between atoms: _18  and  _19
REMARK    8  A    between atoms: _21  and  _23
REMARK    9  A    between atoms: _23  and  _24
REMARK   10  A    between atoms: _23  and  _26
REMARK   11  A    between atoms: _26  and  _27
REMARK   12  A    between atoms: _27  and  _28
REMARK   13  A    between atoms: _28  and  _29
REMARK   14  A    between atoms: _29  and  _30
REMARK   15  A    between atoms: _34  and  _36
REMARK   16  A    between atoms: _36  and  _37
REMARK   17  A    between atoms: _36  and  _39
REMARK   18  A    between atoms: _39  and  _40
REMARK   19  A    between atoms: _45  and  _47
REMARK   20  A    between atoms: _47  and  _48
REMARK   21  A    between atoms: _47  and  _50
REMARK   22  A    between atoms: _50  and  _51
REMARK   23  A    between atoms: _56  and  _57
REMARK   24  A    between atoms: _59  and  _61
REMARK   25  A    between atoms: _61  and  _62
REMARK   26  A    between atoms: _61  and  _64
REMARK   27  A    between atoms: _64  and  _65
REMARK   28  A    between atoms: _65  and  _66
REMARK   29  A    between atoms: _71  and  _73
REMARK   30  A    between atoms: _73  and  _74
REMARK   31  A    between atoms: _73  and  _76
REMARK   32  A    between atoms: _76  and  _77
REMARK   33  A    between atoms: _80  and  _82
REMARK   34  A    between atoms: _82  and  _83
REMARK   35  A    between atoms: _82  and  _85
REMARK   36  A    between atoms: _85  and  _86
REMARK   37  A    between atoms: _86  and  _87
REMARK   38  A    between atoms: _87  and  _88
REMARK   39  A    between atoms: _88  and  _89
REMARK   40  A    between atoms: _93  and  _95
REMARK   41  A    between atoms: _95  and  _96
REMARK   42  A    between atoms: _95  and  _98
REMARK   43  A    between atoms: _98  and  _99
REMARK   44  A    between atoms: _104  and  _106
REMARK   45  A    between atoms: _106  and  _107
REMARK   46  A    between atoms: _106  and  _109
REMARK   47  A    between atoms: _109  and  _110
REMARK   48  A    between atoms: _115  and  _116
REMARK   49  A    between atoms: _118  and  _120
REMARK   50  A    between atoms: _120  and  _121
REMARK   51  A    between atoms: _120  and  _123
REMARK   52  A    between atoms: _123  and  _124
REMARK   53  A    between atoms: _129  and  _131
REMARK   54  A    between atoms: _131  and  _132
REMARK   55  A    between atoms: _135  and  _137
REMARK   56  A    between atoms: _137  and  _138
REMARK   57  A    between atoms: _137  and  _140
REMARK   58  A    between atoms: _140  and  _141
REMARK   59  A    between atoms: _141  and  _142
REMARK   60  A    between atoms: _147  and  _149
REMARK   61  A    between atoms: _149  and  _150
REMARK   62  A    between atoms: _149  and  _152
REMARK   63  A    between atoms: _152  and  _153
REMARK   64  A    between atoms: _155  and  _157
REMARK   65  A    between atoms: _157  and  _158
REMARK   66  A    between atoms: _157  and  _160
REMARK   67  A    between atoms: _160  and  _161
REMARK   68  A    between atoms: _164  and  _166
REMARK   69  A    between atoms: _166  and  _167
REMARK   70  A    between atoms: _170  and  _172
REMARK   71  A    between atoms: _172  and  _173
REMARK   72  A    between atoms: _172  and  _175
REMARK   73  A    between atoms: _175  and  _176
REMARK   74  A    between atoms: _178  and  _180
REMARK   75  A    between atoms: _180  and  _181
REMARK   76  A    between atoms: _180  and  _183
REMARK   77  A    between atoms: _183  and  _184
REMARK   78  A    between atoms: _194  and  _196
REMARK   79  A    between atoms: _196  and  _197
REMARK   80  A    between atoms: _196  and  _199
REMARK   81  A    between atoms: _199  and  _200
REMARK   82  A    between atoms: _210  and  _212
REMARK   83  A    between atoms: _212  and  _213
REMARK   84  A    between atoms: _212  and  _215
REMARK   85  A    between atoms: _215  and  _216
REMARK   86  A    between atoms: _221  and  _223
REMARK   87  A    between atoms: _223  and  _224
REMARK   88  A    between atoms: _223  and  _226
REMARK   89  A    between atoms: _226  and  _227
REMARK   90  A    between atoms: _230  and  _232
REMARK   91  A    between atoms: _232  and  _233
REMARK   92  A    between atoms: _237  and  _238
REMARK   93  A    between atoms: _243  and  _245
REMARK   94  A    between atoms: _245  and  _246
REMARK   95  A    between atoms: _245  and  _248
REMARK   96  A    between atoms: _248  and  _249
REMARK   97  A    between atoms: _252  and  _254
REMARK   98  A    between atoms: _254  and  _255
REMARK   99  A    between atoms: _254  and  _257
REMARK  100  A    between atoms: _257  and  _258
REMARK  101  A    between atoms: _263  and  _264
REMARK  102  A    between atoms: _266  and  _268
REMARK  103  A    between atoms: _268  and  _269
REMARK  104  A    between atoms: _272  and  _274
REMARK  105  A    between atoms: _274  and  _275
REMARK  106  A    between atoms: _274  and  _277
REMARK  107  A    between atoms: _277  and  _278
REMARK  108  A    between atoms: _278  and  _279
REMARK  109  A    between atoms: _281  and  _283
REMARK  110  A    between atoms: _283  and  _284
REMARK  111  A    between atoms: _283  and  _286
REMARK  112  A    between atoms: _286  and  _287
REMARK  113  A    between atoms: _292  and  _294
REMARK  114  A    between atoms: _294  and  _295
REMARK  115  A    between atoms: _294  and  _297
REMARK  116  A    between atoms: _297  and  _298
REMARK  117  A    between atoms: _298  and  _299
REMARK  118  A    between atoms: _302  and  _304
REMARK  119  A    between atoms: _304  and  _305
REMARK  120  A    between atoms: _304  and  _307
REMARK  121  A    between atoms: _307  and  _308
REMARK  122  A    between atoms: _311  and  _313
REMARK  123  A    between atoms: _313  and  _314
REMARK  124  A    between atoms: _313  and  _316
REMARK  125  A    between atoms: _319  and  _321
REMARK  126  A    between atoms: _321  and  _322
REMARK  127  A    between atoms: _321  and  _324
REMARK  128  A    between atoms: _324  and  _325
REMARK  129  A    between atoms: _325  and  _326
REMARK  130  A    between atoms: _326  and  _327
REMARK  131  A    between atoms: _336  and  _338
REMARK  132  A    between atoms: _338  and  _339
REMARK  133  A    between atoms: _338  and  _341
REMARK  134  A    between atoms: _341  and  _342
REMARK  135  A    between atoms: _344  and  _346
REMARK  136  A    between atoms: _346  and  _347
REMARK  137  A    between atoms: _346  and  _349
REMARK  138  A    between atoms: _349  and  _350
REMARK  139  A    between atoms: _355  and  _356
REMARK  140  A    between atoms: _358  and  _360
REMARK  141  A    between atoms: _360  and  _361
REMARK  142  A    between atoms: _360  and  _363
REMARK  143  A    between atoms: _365  and  _367
REMARK  144  A    between atoms: _367  and  _368
REMARK  145  A    between atoms: _370  and  _372
REMARK  146  A    between atoms: _372  and  _373
REMARK  147  A    between atoms: _372  and  _375
REMARK  148  A    between atoms: _375  and  _376
REMARK  149  A    between atoms: _376  and  _377
REMARK  150  A    between atoms: _379  and  _381
REMARK  151  A    between atoms: _381  and  _382
REMARK  152  A    between atoms: _381  and  _384
REMARK  153  A    between atoms: _384  and  _385
REMARK  154  A    between atoms: _385  and  _386
REMARK  155  A    between atoms: _389  and  _391
REMARK  156  A    between atoms: _391  and  _392
REMARK  157  A    between atoms: _395  and  _397
REMARK  158  A    between atoms: _397  and  _398
REMARK  159  A    between atoms: _397  and  _400
REMARK  160  A    between atoms: _400  and  _401
REMARK  161  A    between atoms: _406  and  _408
REMARK  162  A    between atoms: _408  and  _409
REMARK  163  A    between atoms: _411  and  _413
REMARK  164  A    between atoms: _413  and  _414
REMARK  165  A    between atoms: _416  and  _418
REMARK  166  A    between atoms: _418  and  _419
REMARK  167  A    between atoms: _418  and  _421
REMARK  168  A    between atoms: _421  and  _422
REMARK  169  A    between atoms: _427  and  _428
REMARK  170  A    between atoms: _430  and  _432
REMARK  171  A    between atoms: _432  and  _433
REMARK  172  A    between atoms: _432  and  _435
REMARK  173  A    between atoms: _435  and  _436
REMARK  174  A    between atoms: _439  and  _441
REMARK  175  A    between atoms: _441  and  _442
REMARK  176  A    between atoms: _441  and  _444
REMARK  177  A    between atoms: _444  and  _445
REMARK  178  A    between atoms: _451  and  _453
REMARK  179  A    between atoms: _453  and  _454
REMARK  180  A    between atoms: _453  and  _456
REMARK  181  A    between atoms: _458  and  _460
REMARK  182  A    between atoms: _460  and  _461
REMARK  183  A    between atoms: _463  and  _465
REMARK  184  A    between atoms: _465  and  _466
REMARK  185  A    between atoms: _465  and  _468
REMARK  186  A    between atoms: _468  and  _469
REMARK  187  A    between atoms: _475  and  _477
REMARK  188  A    between atoms: _477  and  _478
REMARK  189  A    between atoms: _477  and  _480
REMARK  190  A    between atoms: _480  and  _481
REMARK  191  A    between atoms: _481  and  _482
REMARK  192  A    between atoms: _487  and  _489
REMARK  193  A    between atoms: _489  and  _490
REMARK  194  A    between atoms: _492  and  _494
REMARK  195  A    between atoms: _494  and  _495
REMARK  196  A    between atoms: _494  and  _497
REMARK  197  A    between atoms: _497  and  _498
REMARK  198  A    between atoms: _498  and  _499
REMARK  199  A    between atoms: _499  and  _500
REMARK  200  A    between atoms: _509  and  _511
REMARK  201  A    between atoms: _511  and  _512
REMARK  202  A    between atoms: _511  and  _514
REMARK  203  A    between atoms: _516  and  _518
REMARK  204  A    between atoms: _518  and  _519
REMARK  205  A    between atoms: _518  and  _521
REMARK  206  A    between atoms: _521  and  _522
REMARK  207  A    between atoms: _527  and  _529
REMARK  208  A    between atoms: _529  and  _530
REMARK  209  A    between atoms: _529  and  _532
REMARK  210  A    between atoms: _532  and  _533
REMARK  211  A    between atoms: _533  and  _534
REMARK  212  A    between atoms: _534  and  _535
REMARK  213  A    between atoms: _535  and  _536
REMARK  214  A    between atoms: _540  and  _542
REMARK  215  A    between atoms: _542  and  _543
REMARK  216  A    between atoms: _542  and  _545
REMARK  217  A    between atoms: _545  and  _546
REMARK  218  A    between atoms: _549  and  _551
REMARK  219  A    between atoms: _551  and  _552
REMARK  220  A    between atoms: _551  and  _554
REMARK  221  A    between atoms: _557  and  _559
REMARK  222  A    between atoms: _559  and  _560
REMARK  223  A    between atoms: _559  and  _562
REMARK  224  A    between atoms: _562  and  _563
REMARK  225  A    between atoms: _563  and  _565
REMARK  226  A    between atoms: _565  and  ZN_690
REMARK  227  A    between atoms: _566  and  _568
REMARK  228  A    between atoms: _568  and  _569
REMARK  229  A    between atoms: _568  and  _571
REMARK  230  A    between atoms: _571  and  _572
REMARK  231  A    between atoms: _572  and  ZN_690
REMARK  232  A    between atoms: _573  and  _575
REMARK  233  A    between atoms: _575  and  _576
REMARK  234  A    between atoms: _575  and  _578
REMARK  235  A    between atoms: _578  and  _579
REMARK  236  A    between atoms: _584  and  _585
REMARK  237  A    between atoms: _587  and  _589
REMARK  238  A    between atoms: _589  and  _590
REMARK  239  A    between atoms: _589  and  _592
REMARK  240  A    between atoms: _592  and  _593
REMARK  241  A    between atoms: _599  and  _601
REMARK  242  A    between atoms: _601  and  _602
REMARK  243  A    between atoms: _601  and  _604
REMARK  244  A    between atoms: _604  and  _605
REMARK  245  A    between atoms: _615  and  _617
REMARK  246  A    between atoms: _617  and  _618
REMARK  247  A    between atoms: _617  and  _620
REMARK  248  A    between atoms: _620  and  _621
REMARK  249  A    between atoms: _621  and  _622
REMARK  250  A    between atoms: _627  and  _629
REMARK  251  A    between atoms: _629  and  _630
REMARK  252  A    between atoms: _629  and  _632
REMARK  253  A    between atoms: _632  and  _633
REMARK  254  A    between atoms: _636  and  _638
REMARK  255  A    between atoms: _638  and  _639
REMARK  256  A    between atoms: _638  and  _641
REMARK  257  A    between atoms: _641  and  _642
REMARK  258  A    between atoms: _642  and  _643
REMARK  259  A    between atoms: _643  and  _644
REMARK  260  A    between atoms: _644  and  _645
REMARK  261  A    between atoms: _649  and  _651
REMARK  262  A    between atoms: _651  and  _652
REMARK  263  A    between atoms: _651  and  _654
REMARK  264  A    between atoms: _654  and  _655
REMARK  265  A    between atoms: _655  and  _656
REMARK  266  A    between atoms: _656  and  _657
REMARK  267  A    between atoms: _657  and  _658
REMARK  268  A    between atoms: _662  and  _664
REMARK  269  A    between atoms: _664  and  _665
REMARK  270  A    between atoms: _664  and  _667
REMARK  271  A    between atoms: _667  and  _668
REMARK  272  A    between atoms: _673  and  _674
REMARK  273  A    between atoms: _676  and  _678
REMARK  274  A    between atoms: _678  and  _679
REMARK  275  A    between atoms: _678  and  _681
REMARK  276  A    between atoms: _681  and  _682
REMARK  277  A    between atoms: _687  and  _688
REMARK                            x       y       z     vdW  Elec       q    Type
REMARK                         _______ _______ _______ _____ _____    ______ ____
ROOT
ATOM      1  O   HOH     1     186.334 128.784  24.500  0.00  0.00    +0.000 OA
ENDROOT
TORSDOF 0
REMARK  Name = ../refined-set-2016/1o1s/1o1s_pocket.pdb
REMARK  277 active torsions:
REMARK  status: ('A' for Active; 'I' for Inactive)
REMARK    1  A    between atoms: _1  and  _3
REMARK    2  A    between atoms: _3  and  _4
REMARK    3  A    between atoms: _7  and  _9
REMARK    4  A    between atoms: _9  and  _10
REMARK    5  A    between atoms: _9  and  _12
REMARK    6  A    between atoms: _12  and  _13
REMARK    7  A    between atoms: _18  and  _19
REMARK    8  A    between atoms: _21  and  _23
REMARK    9  A    between atoms: _23  and  _24
REMARK   10  A    between atoms: _23  and  _26
REMARK   11  A    between atoms: _26  and  _27
REMARK   12  A    between atoms: _27  and  _28
REMARK   13  A    between atoms: _28  and  _29
REMARK   14  A    between atoms: _29  and  _30
REMARK   15  A    between atoms: _34  and  _36
REMARK   16  A    between atoms: _36  and  _37
REMARK   17  A    between atoms: _36  and  _39
REMARK   18  A    between atoms: _39  and  _40
REMARK   19  A    between atoms: _45  and  _47
REMARK   20  A    between atoms: _47  and  _48
REMARK   21  A    between atoms: _47  and  _50
REMARK   22  A    between atoms: _50  and  _51
REMARK   23  A    between atoms: _56  and  _57
REMARK   24  A    between atoms: _59  and  _61
REMARK   25  A    between atoms: _61  and  _62
REMARK   26  A    between atoms: _61  and  _64
REMARK   27  A    between atoms: _64  and  _65
REMARK   28  A    between atoms: _65  and  _66
REMARK   29  A    between atoms: _71  and  _73
REMARK   30  A    between atoms: _73  and  _74
REMARK   31  A    between atoms: _73  and  _76
REMARK   32  A    between atoms: _76  and  _77
REMARK   33  A    between atoms: _80  and  _82
REMARK   34  A    between atoms: _82  and  _83
REMARK   35  A    between atoms: _82  and  _85
REMARK   36  A    between atoms: _85  and  _86
REMARK   37  A    between atoms: _86  and  _87
REMARK   38  A    between atoms: _87  and  _88
REMARK   39  A    between atoms: _88  and  _89
REMARK   40  A    between atoms: _93  and  _95
REMARK   41  A    between atoms: _95  and  _96
REMARK   42  A    between atoms: _95  and  _98
REMARK   43  A    between atoms: _98  and  _99
REMARK   44  A    between atoms: _104  and  _106
REMARK   45  A    between atoms: _106  and  _107
REMARK   46  A    between atoms: _106  and  _109
REMARK   47  A    between atoms: _109  and  _110
REMARK   48  A    between atoms: _115  and  _116
REMARK   49  A    between atoms: _118  and  _120
REMARK   50  A    between atoms: _120  and  _121
REMARK   51  A    between atoms: _120  and  _123
REMARK   52  A    between atoms: _123  and  _124
REMARK   53  A    between atoms: _129  and  _131
REMARK   54  A    between atoms: _131  and  _132
REMARK   55  A    between atoms: _135  and  _137
REMARK   56  A    between atoms: _137  and  _138
REMARK   57  A    between atoms: _137  and  _140
REMARK   58  A    between atoms: _140  and  _141
REMARK   59  A    between atoms: _141  and  _142
REMARK   60  A    between atoms: _147  and  _149
REMARK   61  A    between atoms: _149  and  _150
REMARK   62  A    between atoms: _149  and  _152
REMARK   63  A    between atoms: _152  and  _153
REMARK   64  A    between atoms: _155  and  _157
REMARK   65  A    between atoms: _157  and  _158
REMARK   66  A    between atoms: _157  and  _160
REMARK   67  A    between atoms: _160  and  _161
REMARK   68  A    between atoms: _164  and  _166
REMARK   69  A    between atoms: _166  and  _167
REMARK   70  A    between atoms: _170  and  _172
REMARK   71  A    between atoms: _172  and  _173
REMARK   72  A    between atoms: _172  and  _175
REMARK   73  A    between atoms: _175  and  _176
REMARK   74  A    between atoms: _178  and  _180
REMARK   75  A    between atoms: _180  and  _181
REMARK   76  A    between atoms: _180  and  _183
REMARK   77  A    between atoms: _183  and  _184
REMARK   78  A    between atoms: _194  and  _196
REMARK   79  A    between atoms: _196  and  _197
REMARK   80  A    between atoms: _196  and  _199
REMARK   81  A    between atoms: _199  and  _200
REMARK   82  A    between atoms: _210  and  _212
REMARK   83  A    between atoms: _212  and  _213
REMARK   84  A    between atoms: _212  and  _215
REMARK   85  A    between atoms: _215  and  _216
REMARK   86  A    between atoms: _221  and  _223
REMARK   87  A    between atoms: _223  and  _224
REMARK   88  A    between atoms: _223  and  _226
REMARK   89  A    between atoms: _226  and  _227
REMARK   90  A    between atoms: _230  and  _232
REMARK   91  A    between atoms: _232  and  _233
REMARK   92  A    between atoms: _237  and  _238
REMARK   93  A    between atoms: _243  and  _245
REMARK   94  A    between atoms: _245  and  _246
REMARK   95  A    between atoms: _245  and  _248
REMARK   96  A    between atoms: _248  and  _249
REMARK   97  A    between atoms: _252  and  _254
REMARK   98  A    between atoms: _254  and  _255
REMARK   99  A    between atoms: _254  and  _257
REMARK  100  A    between atoms: _257  and  _258
REMARK  101  A    between atoms: _263  and  _264
REMARK  102  A    between atoms: _266  and  _268
REMARK  103  A    between atoms: _268  and  _269
REMARK  104  A    between atoms: _272  and  _274
REMARK  105  A    between atoms: _274  and  _275
REMARK  106  A    between atoms: _274  and  _277
REMARK  107  A    between atoms: _277  and  _278
REMARK  108  A    between atoms: _278  and  _279
REMARK  109  A    between atoms: _281  and  _283
REMARK  110  A    between atoms: _283  and  _284
REMARK  111  A    between atoms: _283  and  _286
REMARK  112  A    between atoms: _286  and  _287
REMARK  113  A    between atoms: _292  and  _294
REMARK  114  A    between atoms: _294  and  _295
REMARK  115  A    between atoms: _294  and  _297
REMARK  116  A    between atoms: _297  and  _298
REMARK  117  A    between atoms: _298  and  _299
REMARK  118  A    between atoms: _302  and  _304
REMARK  119  A    between atoms: _304  and  _305
REMARK  120  A    between atoms: _304  and  _307
REMARK  121  A    between atoms: _307  and  _308
REMARK  122  A    between atoms: _311  and  _313
REMARK  123  A    between atoms: _313  and  _314
REMARK  124  A    between atoms: _313  and  _316
REMARK  125  A    between atoms: _319  and  _321
REMARK  126  A    between atoms: _321  and  _322
REMARK  127  A    between atoms: _321  and  _324
REMARK  128  A    between atoms: _324  and  _325
REMARK  129  A    between atoms: _325  and  _326
REMARK  130  A    between atoms: _326  and  _327
REMARK  131  A    between atoms: _336  and  _338
REMARK  132  A    between atoms: _338  and  _339
REMARK  133  A    between atoms: _338  and  _341
REMARK  134  A    between atoms: _341  and  _342
REMARK  135  A    between atoms: _344  and  _346
REMARK  136  A    between atoms: _346  and  _347
REMARK  137  A    between atoms: _346  and  _349
REMARK  138  A    between atoms: _349  and  _350
REMARK  139  A    between atoms: _355  and  _356
REMARK  140  A    between atoms: _358  and  _360
REMARK  141  A    between atoms: _360  and  _361
REMARK  142  A    between atoms: _360  and  _363
REMARK  143  A    between atoms: _365  and  _367
REMARK  144  A    between atoms: _367  and  _368
REMARK  145  A    between atoms: _370  and  _372
REMARK  146  A    between atoms: _372  and  _373
REMARK  147  A    between atoms: _372  and  _375
REMARK  148  A    between atoms: _375  and  _376
REMARK  149  A    between atoms: _376  and  _377
REMARK  150  A    between atoms: _379  and  _381
REMARK  151  A    between atoms: _381  and  _382
REMARK  152  A    between atoms: _381  and  _384
REMARK  153  A    between atoms: _384  and  _385
REMARK  154  A    between atoms: _385  and  _386
REMARK  155  A    between atoms: _389  and  _391
REMARK  156  A    between atoms: _391  and  _392
REMARK  157  A    between atoms: _395  and  _397
REMARK  158  A    between atoms: _397  and  _398
REMARK  159  A    between atoms: _397  and  _400
REMARK  160  A    between atoms: _400  and  _401
REMARK  161  A    between atoms: _406  and  _408
REMARK  162  A    between atoms: _408  and  _409
REMARK  163  A    between atoms: _411  and  _413
REMARK  164  A    between atoms: _413  and  _414
REMARK  165  A    between atoms: _416  and  _418
REMARK  166  A    between atoms: _418  and  _419
REMARK  167  A    between atoms: _418  and  _421
REMARK  168  A    between atoms: _421  and  _422
REMARK  169  A    between atoms: _427  and  _428
REMARK  170  A    between atoms: _430  and  _432
REMARK  171  A    between atoms: _432  and  _433
REMARK  172  A    between atoms: _432  and  _435
REMARK  173  A    between atoms: _435  and  _436
REMARK  174  A    between atoms: _439  and  _441
REMARK  175  A    between atoms: _441  and  _442
REMARK  176  A    between atoms: _441  and  _444
REMARK  177  A    between atoms: _444  and  _445
REMARK  178  A    between atoms: _451  and  _453
REMARK  179  A    between atoms: _453  and  _454
REMARK  180  A    between atoms: _453  and  _456
REMARK  181  A    between atoms: _458  and  _460
REMARK  182  A    between atoms: _460  and  _461
REMARK  183  A    between atoms: _463  and  _465
REMARK  184  A    between atoms: _465  and  _466
REMARK  185  A    between atoms: _465  and  _468
REMARK  186  A    between atoms: _468  and  _469
REMARK  187  A    between atoms: _475  and  _477
REMARK  188  A    between atoms: _477  and  _478
REMARK  189  A    between atoms: _477  and  _480
REMARK  190  A    between atoms: _480  and  _481
REMARK  191  A    between atoms: _481  and  _482
REMARK  192  A    between atoms: _487  and  _489
REMARK  193  A    between atoms: _489  and  _490
REMARK  194  A    between atoms: _492  and  _494
REMARK  195  A    between atoms: _494  and  _495
REMARK  196  A    between atoms: _494  and  _497
REMARK  197  A    between atoms: _497  and  _498
REMARK  198  A    between atoms: _498  and  _499
REMARK  199  A    between atoms: _499  and  _500
REMARK  200  A    between atoms: _509  and  _511
REMARK  201  A    between atoms: _511  and  _512
REMARK  202  A    between atoms: _511  and  _514
REMARK  203  A    between atoms: _516  and  _518
REMARK  204  A    between atoms: _518  and  _519
REMARK  205  A    between atoms: _518  and  _521
REMARK  206  A    between atoms: _521  and  _522
REMARK  207  A    between atoms: _527  and  _529
REMARK  208  A    between atoms: _529  and  _530
REMARK  209  A    between atoms: _529  and  _532
REMARK  210  A    between atoms: _532  and  _533
REMARK  211  A    between atoms: _533  and  _534
REMARK  212  A    between atoms: _534  and  _535
REMARK  213  A    between atoms: _535  and  _536
REMARK  214  A    between atoms: _540  and  _542
REMARK  215  A    between atoms: _542  and  _543
REMARK  216  A    between atoms: _542  and  _545
REMARK  217  A    between atoms: _545  and  _546
REMARK  218  A    between atoms: _549  and  _551
REMARK  219  A    between atoms: _551  and  _552
REMARK  220  A    between atoms: _551  and  _554
REMARK  221  A    between atoms: _557  and  _559
REMARK  222  A    between atoms: _559  and  _560
REMARK  223  A    between atoms: _559  and  _562
REMARK  224  A    between atoms: _562  and  _563
REMARK  225  A    between atoms: _563  and  _565
REMARK  226  A    between atoms: _565  and  ZN_690
REMARK  227  A    between atoms: _566  and  _568
REMARK  228  A    between atoms: _568  and  _569
REMARK  229  A    between atoms: _568  and  _571
REMARK  230  A    between atoms: _571  and  _572
REMARK  231  A    between atoms: _572  and  ZN_690
REMARK  232  A    between atoms: _573  and  _575
REMARK  233  A    between atoms: _575  and  _576
REMARK  234  A    between atoms: _575  and  _578
REMARK  235  A    between atoms: _578  and  _579
REMARK  236  A    between atoms: _584  and  _585
REMARK  237  A    between atoms: _587  and  _589
REMARK  238  A    between atoms: _589  and  _590
REMARK  239  A    between atoms: _589  and  _592
REMARK  240  A    between atoms: _592  and  _593
REMARK  241  A    between atoms: _599  and  _601
REMARK  242  A    between atoms: _601  and  _602
REMARK  243  A    between atoms: _601  and  _604
REMARK  244  A    between atoms: _604  and  _605
REMARK  245  A    between atoms: _615  and  _617
REMARK  246  A    between atoms: _617  and  _618
REMARK  247  A    between atoms: _617  and  _620
REMARK  248  A    between atoms: _620  and  _621
REMARK  249  A    between atoms: _621  and  _622
REMARK  250  A    between atoms: _627  and  _629
REMARK  251  A    between atoms: _629  and  _630
REMARK  252  A    between atoms: _629  and  _632
REMARK  253  A    between atoms: _632  and  _633
REMARK  254  A    between atoms: _636  and  _638
REMARK  255  A    between atoms: _638  and  _639
REMARK  256  A    between atoms: _638  and  _641
REMARK  257  A    between atoms: _641  and  _642
REMARK  258  A    between atoms: _642  and  _643
REMARK  259  A    between atoms: _643  and  _644
REMARK  260  A    between atoms: _644  and  _645
REMARK  261  A    between atoms: _649  and  _651
REMARK  262  A    between atoms: _651  and  _652
REMARK  263  A    between atoms: _651  and  _654
REMARK  264  A    between atoms: _654  and  _655
REMARK  265  A    between atoms: _655  and  _656
REMARK  266  A    between atoms: _656  and  _657
REMARK  267  A    between atoms: _657  and  _658
REMARK  268  A    between atoms: _662  and  _664
REMARK  269  A    between atoms: _664  and  _665
REMARK  270  A    between atoms: _664  and  _667
REMARK  271  A    between atoms: _667  and  _668
REMARK  272  A    between atoms: _673  and  _674
REMARK  273  A    between atoms: _676  and  _678
REMARK  274  A    between atoms: _678  and  _679
REMARK  275  A    between atoms: _678  and  _681
REMARK  276  A    between atoms: _681  and  _682
REMARK  277  A    between atoms: _687  and  _688
REMARK                            x       y       z     vdW  Elec       q    Type
REMARK                         _______ _______ _______ _____ _____    ______ ____
ROOT
ATOM      1  O   HOH     1     193.396 124.045  22.235  0.00  0.00    +0.000 OA
ENDROOT
TORSDOF 0
REMARK  Name = ../refined-set-2016/1o1s/1o1s_pocket.pdb
REMARK  277 active torsions:
REMARK  status: ('A' for Active; 'I' for Inactive)
REMARK    1  A    between atoms: _1  and  _3
REMARK    2  A    between atoms: _3  and  _4
REMARK    3  A    between atoms: _7  and  _9
REMARK    4  A    between atoms: _9  and  _10
REMARK    5  A    between atoms: _9  and  _12
REMARK    6  A    between atoms: _12  and  _13
REMARK    7  A    between atoms: _18  and  _19
REMARK    8  A    between atoms: _21  and  _23
REMARK    9  A    between atoms: _23  and  _24
REMARK   10  A    between atoms: _23  and  _26
REMARK   11  A    between atoms: _26  and  _27
REMARK   12  A    between atoms: _27  and  _28
REMARK   13  A    between atoms: _28  and  _29
REMARK   14  A    between atoms: _29  and  _30
REMARK   15  A    between atoms: _34  and  _36
REMARK   16  A    between atoms: _36  and  _37
REMARK   17  A    between atoms: _36  and  _39
REMARK   18  A    between atoms: _39  and  _40
REMARK   19  A    between atoms: _45  and  _47
REMARK   20  A    between atoms: _47  and  _48
REMARK   21  A    between atoms: _47  and  _50
REMARK   22  A    between atoms: _50  and  _51
REMARK   23  A    between atoms: _56  and  _57
REMARK   24  A    between atoms: _59  and  _61
REMARK   25  A    between atoms: _61  and  _62
REMARK   26  A    between atoms: _61  and  _64
REMARK   27  A    between atoms: _64  and  _65
REMARK   28  A    between atoms: _65  and  _66
REMARK   29  A    between atoms: _71  and  _73
REMARK   30  A    between atoms: _73  and  _74
REMARK   31  A    between atoms: _73  and  _76
REMARK   32  A    between atoms: _76  and  _77
REMARK   33  A    between atoms: _80  and  _82
REMARK   34  A    between atoms: _82  and  _83
REMARK   35  A    between atoms: _82  and  _85
REMARK   36  A    between atoms: _85  and  _86
REMARK   37  A    between atoms: _86  and  _87
REMARK   38  A    between atoms: _87  and  _88
REMARK   39  A    between atoms: _88  and  _89
REMARK   40  A    between atoms: _93  and  _95
REMARK   41  A    between atoms: _95  and  _96
REMARK   42  A    between atoms: _95  and  _98
REMARK   43  A    between atoms: _98  and  _99
REMARK   44  A    between atoms: _104  and  _106
REMARK   45  A    between atoms: _106  and  _107
REMARK   46  A    between atoms: _106  and  _109
REMARK   47  A    between atoms: _109  and  _110
REMARK   48  A    between atoms: _115  and  _116
REMARK   49  A    between atoms: _118  and  _120
REMARK   50  A    between atoms: _120  and  _121
REMARK   51  A    between atoms: _120  and  _123
REMARK   52  A    between atoms: _123  and  _124
REMARK   53  A    between atoms: _129  and  _131
REMARK   54  A    between atoms: _131  and  _132
REMARK   55  A    between atoms: _135  and  _137
REMARK   56  A    between atoms: _137  and  _138
REMARK   57  A    between atoms: _137  and  _140
REMARK   58  A    between atoms: _140  and  _141
REMARK   59  A    between atoms: _141  and  _142
REMARK   60  A    between atoms: _147  and  _149
REMARK   61  A    between atoms: _149  and  _150
REMARK   62  A    between atoms: _149  and  _152
REMARK   63  A    between atoms: _152  and  _153
REMARK   64  A    between atoms: _155  and  _157
REMARK   65  A    between atoms: _157  and  _158
REMARK   66  A    between atoms: _157  and  _160
REMARK   67  A    between atoms: _160  and  _161
REMARK   68  A    between atoms: _164  and  _166
REMARK   69  A    between atoms: _166  and  _167
REMARK   70  A    between atoms: _170  and  _172
REMARK   71  A    between atoms: _172  and  _173
REMARK   72  A    between atoms: _172  and  _175
REMARK   73  A    between atoms: _175  and  _176
REMARK   74  A    between atoms: _178  and  _180
REMARK   75  A    between atoms: _180  and  _181
REMARK   76  A    between atoms: _180  and  _183
REMARK   77  A    between atoms: _183  and  _184
REMARK   78  A    between atoms: _194  and  _196
REMARK   79  A    between atoms: _196  and  _197
REMARK   80  A    between atoms: _196  and  _199
REMARK   81  A    between atoms: _199  and  _200
REMARK   82  A    between atoms: _210  and  _212
REMARK   83  A    between atoms: _212  and  _213
REMARK   84  A    between atoms: _212  and  _215
REMARK   85  A    between atoms: _215  and  _216
REMARK   86  A    between atoms: _221  and  _223
REMARK   87  A    between atoms: _223  and  _224
REMARK   88  A    between atoms: _223  and  _226
REMARK   89  A    between atoms: _226  and  _227
REMARK   90  A    between atoms: _230  and  _232
REMARK   91  A    between atoms: _232  and  _233
REMARK   92  A    between atoms: _237  and  _238
REMARK   93  A    between atoms: _243  and  _245
REMARK   94  A    between atoms: _245  and  _246
REMARK   95  A    between atoms: _245  and  _248
REMARK   96  A    between atoms: _248  and  _249
REMARK   97  A    between atoms: _252  and  _254
REMARK   98  A    between atoms: _254  and  _255
REMARK   99  A    between atoms: _254  and  _257
REMARK  100  A    between atoms: _257  and  _258
REMARK  101  A    between atoms: _263  and  _264
REMARK  102  A    between atoms: _266  and  _268
REMARK  103  A    between atoms: _268  and  _269
REMARK  104  A    between atoms: _272  and  _274
REMARK  105  A    between atoms: _274  and  _275
REMARK  106  A    between atoms: _274  and  _277
REMARK  107  A    between atoms: _277  and  _278
REMARK  108  A    between atoms: _278  and  _279
REMARK  109  A    between atoms: _281  and  _283
REMARK  110  A    between atoms: _283  and  _284
REMARK  111  A    between atoms: _283  and  _286
REMARK  112  A    between atoms: _286  and  _287
REMARK  113  A    between atoms: _292  and  _294
REMARK  114  A    between atoms: _294  and  _295
REMARK  115  A    between atoms: _294  and  _297
REMARK  116  A    between atoms: _297  and  _298
REMARK  117  A    between atoms: _298  and  _299
REMARK  118  A    between atoms: _302  and  _304
REMARK  119  A    between atoms: _304  and  _305
REMARK  120  A    between atoms: _304  and  _307
REMARK  121  A    between atoms: _307  and  _308
REMARK  122  A    between atoms: _311  and  _313
REMARK  123  A    between atoms: _313  and  _314
REMARK  124  A    between atoms: _313  and  _316
REMARK  125  A    between atoms: _319  and  _321
REMARK  126  A    between atoms: _321  and  _322
REMARK  127  A    between atoms: _321  and  _324
REMARK  128  A    between atoms: _324  and  _325
REMARK  129  A    between atoms: _325  and  _326
REMARK  130  A    between atoms: _326  and  _327
REMARK  131  A    between atoms: _336  and  _338
REMARK  132  A    between atoms: _338  and  _339
REMARK  133  A    between atoms: _338  and  _341
REMARK  134  A    between atoms: _341  and  _342
REMARK  135  A    between atoms: _344  and  _346
REMARK  136  A    between atoms: _346  and  _347
REMARK  137  A    between atoms: _346  and  _349
REMARK  138  A    between atoms: _349  and  _350
REMARK  139  A    between atoms: _355  and  _356
REMARK  140  A    between atoms: _358  and  _360
REMARK  141  A    between atoms: _360  and  _361
REMARK  142  A    between atoms: _360  and  _363
REMARK  143  A    between atoms: _365  and  _367
REMARK  144  A    between atoms: _367  and  _368
REMARK  145  A    between atoms: _370  and  _372
REMARK  146  A    between atoms: _372  and  _373
REMARK  147  A    between atoms: _372  and  _375
REMARK  148  A    between atoms: _375  and  _376
REMARK  149  A    between atoms: _376  and  _377
REMARK  150  A    between atoms: _379  and  _381
REMARK  151  A    between atoms: _381  and  _382
REMARK  152  A    between atoms: _381  and  _384
REMARK  153  A    between atoms: _384  and  _385
REMARK  154  A    between atoms: _385  and  _386
REMARK  155  A    between atoms: _389  and  _391
REMARK  156  A    between atoms: _391  and  _392
REMARK  157  A    between atoms: _395  and  _397
REMARK  158  A    between atoms: _397  and  _398
REMARK  159  A    between atoms: _397  and  _400
REMARK  160  A    between atoms: _400  and  _401
REMARK  161  A    between atoms: _406  and  _408
REMARK  162  A    between atoms: _408  and  _409
REMARK  163  A    between atoms: _411  and  _413
REMARK  164  A    between atoms: _413  and  _414
REMARK  165  A    between atoms: _416  and  _418
REMARK  166  A    between atoms: _418  and  _419
REMARK  167  A    between atoms: _418  and  _421
REMARK  168  A    between atoms: _421  and  _422
REMARK  169  A    between atoms: _427  and  _428
REMARK  170  A    between atoms: _430  and  _432
REMARK  171  A    between atoms: _432  and  _433
REMARK  172  A    between atoms: _432  and  _435
REMARK  173  A    between atoms: _435  and  _436
REMARK  174  A    between atoms: _439  and  _441
REMARK  175  A    between atoms: _441  and  _442
REMARK  176  A    between atoms: _441  and  _444
REMARK  177  A    between atoms: _444  and  _445
REMARK  178  A    between atoms: _451  and  _453
REMARK  179  A    between atoms: _453  and  _454
REMARK  180  A    between atoms: _453  and  _456
REMARK  181  A    between atoms: _458  and  _460
REMARK  182  A    between atoms: _460  and  _461
REMARK  183  A    between atoms: _463  and  _465
REMARK  184  A    between atoms: _465  and  _466
REMARK  185  A    between atoms: _465  and  _468
REMARK  186  A    between atoms: _468  and  _469
REMARK  187  A    between atoms: _475  and  _477
REMARK  188  A    between atoms: _477  and  _478
REMARK  189  A    between atoms: _477  and  _480
REMARK  190  A    between atoms: _480  and  _481
REMARK  191  A    between atoms: _481  and  _482
REMARK  192  A    between atoms: _487  and  _489
REMARK  193  A    between atoms: _489  and  _490
REMARK  194  A    between atoms: _492  and  _494
REMARK  195  A    between atoms: _494  and  _495
REMARK  196  A    between atoms: _494  and  _497
REMARK  197  A    between atoms: _497  and  _498
REMARK  198  A    between atoms: _498  and  _499
REMARK  199  A    between atoms: _499  and  _500
REMARK  200  A    between atoms: _509  and  _511
REMARK  201  A    between atoms: _511  and  _512
REMARK  202  A    between atoms: _511  and  _514
REMARK  203  A    between atoms: _516  and  _518
REMARK  204  A    between atoms: _518  and  _519
REMARK  205  A    between atoms: _518  and  _521
REMARK  206  A    between atoms: _521  and  _522
REMARK  207  A    between atoms: _527  and  _529
REMARK  208  A    between atoms: _529  and  _530
REMARK  209  A    between atoms: _529  and  _532
REMARK  210  A    between atoms: _532  and  _533
REMARK  211  A    between atoms: _533  and  _534
REMARK  212  A    between atoms: _534  and  _535
REMARK  213  A    between atoms: _535  and  _536
REMARK  214  A    between atoms: _540  and  _542
REMARK  215  A    between atoms: _542  and  _543
REMARK  216  A    between atoms: _542  and  _545
REMARK  217  A    between atoms: _545  and  _546
REMARK  218  A    between atoms: _549  and  _551
REMARK  219  A    between atoms: _551  and  _552
REMARK  220  A    between atoms: _551  and  _554
REMARK  221  A    between atoms: _557  and  _559
REMARK  222  A    between atoms: _559  and  _560
REMARK  223  A    between atoms: _559  and  _562
REMARK  224  A    between atoms: _562  and  _563
REMARK  225  A    between atoms: _563  and  _565
REMARK  226  A    between atoms: _565  and  ZN_690
REMARK  227  A    between atoms: _566  and  _568
REMARK  228  A    between atoms: _568  and  _569
REMARK  229  A    between atoms: _568  and  _571
REMARK  230  A    between atoms: _571  and  _572
REMARK  231  A    between atoms: _572  and  ZN_690
REMARK  232  A    between atoms: _573  and  _575
REMARK  233  A    between atoms: _575  and  _576
REMARK  234  A    between atoms: _575  and  _578
REMARK  235  A    between atoms: _578  and  _579
REMARK  236  A    between atoms: _584  and  _585
REMARK  237  A    between atoms: _587  and  _589
REMARK  238  A    between atoms: _589  and  _590
REMARK  239  A    between atoms: _589  and  _592
REMARK  240  A    between atoms: _592  and  _593
REMARK  241  A    between atoms: _599  and  _601
REMARK  242  A    between atoms: _601  and  _602
REMARK  243  A    between atoms: _601  and  _604
REMARK  244  A    between atoms: _604  and  _605
REMARK  245  A    between atoms: _615  and  _617
REMARK  246  A    between atoms: _617  and  _618
REMARK  247  A    between atoms: _617  and  _620
REMARK  248  A    between atoms: _620  and  _621
REMARK  249  A    between atoms: _621  and  _622
REMARK  250  A    between atoms: _627  and  _629
REMARK  251  A    between atoms: _629  and  _630
REMARK  252  A    between atoms: _629  and  _632
REMARK  253  A    between atoms: _632  and  _633
REMARK  254  A    between atoms: _636  and  _638
REMARK  255  A    between atoms: _638  and  _639
REMARK  256  A    between atoms: _638  and  _641
REMARK  257  A    between atoms: _641  and  _642
REMARK  258  A    between atoms: _642  and  _643
REMARK  259  A    between atoms: _643  and  _644
REMARK  260  A    between atoms: _644  and  _645
REMARK  261  A    between atoms: _649  and  _651
REMARK  262  A    between atoms: _651  and  _652
REMARK  263  A    between atoms: _651  and  _654
REMARK  264  A    between atoms: _654  and  _655
REMARK  265  A    between atoms: _655  and  _656
REMARK  266  A    between atoms: _656  and  _657
REMARK  267  A    between atoms: _657  and  _658
REMARK  268  A    between atoms: _662  and  _664
REMARK  269  A    between atoms: _664  and  _665
REMARK  270  A    between atoms: _664  and  _667
REMARK  271  A    between atoms: _667  and  _668
REMARK  272  A    between atoms: _673  and  _674
REMARK  273  A    between atoms: _676  and  _678
REMARK  274  A    between atoms: _678  and  _679
REMARK  275  A    between atoms: _678  and  _681
REMARK  276  A    between atoms: _681  and  _682
REMARK  277  A    between atoms: _687  and  _688
REMARK                            x       y       z     vdW  Elec       q    Type
REMARK                         _______ _______ _______ _____ _____    ______ ____
ROOT
ATOM      1  O   HOH     1     200.902 128.907  34.051  0.00  0.00    +0.000 OA
ENDROOT
TORSDOF 0
REMARK  Name = ../refined-set-2016/1o1s/1o1s_pocket.pdb
REMARK  277 active torsions:
REMARK  status: ('A' for Active; 'I' for Inactive)
REMARK    1  A    between atoms: _1  and  _3
REMARK    2  A    between atoms: _3  and  _4
REMARK    3  A    between atoms: _7  and  _9
REMARK    4  A    between atoms: _9  and  _10
REMARK    5  A    between atoms: _9  and  _12
REMARK    6  A    between atoms: _12  and  _13
REMARK    7  A    between atoms: _18  and  _19
REMARK    8  A    between atoms: _21  and  _23
REMARK    9  A    between atoms: _23  and  _24
REMARK   10  A    between atoms: _23  and  _26
REMARK   11  A    between atoms: _26  and  _27
REMARK   12  A    between atoms: _27  and  _28
REMARK   13  A    between atoms: _28  and  _29
REMARK   14  A    between atoms: _29  and  _30
REMARK   15  A    between atoms: _34  and  _36
REMARK   16  A    between atoms: _36  and  _37
REMARK   17  A    between atoms: _36  and  _39
REMARK   18  A    between atoms: _39  and  _40
REMARK   19  A    between atoms: _45  and  _47
REMARK   20  A    between atoms: _47  and  _48
REMARK   21  A    between atoms: _47  and  _50
REMARK   22  A    between atoms: _50  and  _51
REMARK   23  A    between atoms: _56  and  _57
REMARK   24  A    between atoms: _59  and  _61
REMARK   25  A    between atoms: _61  and  _62
REMARK   26  A    between atoms: _61  and  _64
REMARK   27  A    between atoms: _64  and  _65
REMARK   28  A    between atoms: _65  and  _66
REMARK   29  A    between atoms: _71  and  _73
REMARK   30  A    between atoms: _73  and  _74
REMARK   31  A    between atoms: _73  and  _76
REMARK   32  A    between atoms: _76  and  _77
REMARK   33  A    between atoms: _80  and  _82
REMARK   34  A    between atoms: _82  and  _83
REMARK   35  A    between atoms: _82  and  _85
REMARK   36  A    between atoms: _85  and  _86
REMARK   37  A    between atoms: _86  and  _87
REMARK   38  A    between atoms: _87  and  _88
REMARK   39  A    between atoms: _88  and  _89
REMARK   40  A    between atoms: _93  and  _95
REMARK   41  A    between atoms: _95  and  _96
REMARK   42  A    between atoms: _95  and  _98
REMARK   43  A    between atoms: _98  and  _99
REMARK   44  A    between atoms: _104  and  _106
REMARK   45  A    between atoms: _106  and  _107
REMARK   46  A    between atoms: _106  and  _109
REMARK   47  A    between atoms: _109  and  _110
REMARK   48  A    between atoms: _115  and  _116
REMARK   49  A    between atoms: _118  and  _120
REMARK   50  A    between atoms: _120  and  _121
REMARK   51  A    between atoms: _120  and  _123
REMARK   52  A    between atoms: _123  and  _124
REMARK   53  A    between atoms: _129  and  _131
REMARK   54  A    between atoms: _131  and  _132
REMARK   55  A    between atoms: _135  and  _137
REMARK   56  A    between atoms: _137  and  _138
REMARK   57  A    between atoms: _137  and  _140
REMARK   58  A    between atoms: _140  and  _141
REMARK   59  A    between atoms: _141  and  _142
REMARK   60  A    between atoms: _147  and  _149
REMARK   61  A    between atoms: _149  and  _150
REMARK   62  A    between atoms: _149  and  _152
REMARK   63  A    between atoms: _152  and  _153
REMARK   64  A    between atoms: _155  and  _157
REMARK   65  A    between atoms: _157  and  _158
REMARK   66  A    between atoms: _157  and  _160
REMARK   67  A    between atoms: _160  and  _161
REMARK   68  A    between atoms: _164  and  _166
REMARK   69  A    between atoms: _166  and  _167
REMARK   70  A    between atoms: _170  and  _172
REMARK   71  A    between atoms: _172  and  _173
REMARK   72  A    between atoms: _172  and  _175
REMARK   73  A    between atoms: _175  and  _176
REMARK   74  A    between atoms: _178  and  _180
REMARK   75  A    between atoms: _180  and  _181
REMARK   76  A    between atoms: _180  and  _183
REMARK   77  A    between atoms: _183  and  _184
REMARK   78  A    between atoms: _194  and  _196
REMARK   79  A    between atoms: _196  and  _197
REMARK   80  A    between atoms: _196  and  _199
REMARK   81  A    between atoms: _199  and  _200
REMARK   82  A    between atoms: _210  and  _212
REMARK   83  A    between atoms: _212  and  _213
REMARK   84  A    between atoms: _212  and  _215
REMARK   85  A    between atoms: _215  and  _216
REMARK   86  A    between atoms: _221  and  _223
REMARK   87  A    between atoms: _223  and  _224
REMARK   88  A    between atoms: _223  and  _226
REMARK   89  A    between atoms: _226  and  _227
REMARK   90  A    between atoms: _230  and  _232
REMARK   91  A    between atoms: _232  and  _233
REMARK   92  A    between atoms: _237  and  _238
REMARK   93  A    between atoms: _243  and  _245
REMARK   94  A    between atoms: _245  and  _246
REMARK   95  A    between atoms: _245  and  _248
REMARK   96  A    between atoms: _248  and  _249
REMARK   97  A    between atoms: _252  and  _254
REMARK   98  A    between atoms: _254  and  _255
REMARK   99  A    between atoms: _254  and  _257
REMARK  100  A    between atoms: _257  and  _258
REMARK  101  A    between atoms: _263  and  _264
REMARK  102  A    between atoms: _266  and  _268
REMARK  103  A    between atoms: _268  and  _269
REMARK  104  A    between atoms: _272  and  _274
REMARK  105  A    between atoms: _274  and  _275
REMARK  106  A    between atoms: _274  and  _277
REMARK  107  A    between atoms: _277  and  _278
REMARK  108  A    between atoms: _278  and  _279
REMARK  109  A    between atoms: _281  and  _283
REMARK  110  A    between atoms: _283  and  _284
REMARK  111  A    between atoms: _283  and  _286
REMARK  112  A    between atoms: _286  and  _287
REMARK  113  A    between atoms: _292  and  _294
REMARK  114  A    between atoms: _294  and  _295
REMARK  115  A    between atoms: _294  and  _297
REMARK  116  A    between atoms: _297  and  _298
REMARK  117  A    between atoms: _298  and  _299
REMARK  118  A    between atoms: _302  and  _304
REMARK  119  A    between atoms: _304  and  _305
REMARK  120  A    between atoms: _304  and  _307
REMARK  121  A    between atoms: _307  and  _308
REMARK  122  A    between atoms: _311  and  _313
REMARK  123  A    between atoms: _313  and  _314
REMARK  124  A    between atoms: _313  and  _316
REMARK  125  A    between atoms: _319  and  _321
REMARK  126  A    between atoms: _321  and  _322
REMARK  127  A    between atoms: _321  and  _324
REMARK  128  A    between atoms: _324  and  _325
REMARK  129  A    between atoms: _325  and  _326
REMARK  130  A    between atoms: _326  and  _327
REMARK  131  A    between atoms: _336  and  _338
REMARK  132  A    between atoms: _338  and  _339
REMARK  133  A    between atoms: _338  and  _341
REMARK  134  A    between atoms: _341  and  _342
REMARK  135  A    between atoms: _344  and  _346
REMARK  136  A    between atoms: _346  and  _347
REMARK  137  A    between atoms: _346  and  _349
REMARK  138  A    between atoms: _349  and  _350
REMARK  139  A    between atoms: _355  and  _356
REMARK  140  A    between atoms: _358  and  _360
REMARK  141  A    between atoms: _360  and  _361
REMARK  142  A    between atoms: _360  and  _363
REMARK  143  A    between atoms: _365  and  _367
REMARK  144  A    between atoms: _367  and  _368
REMARK  145  A    between atoms: _370  and  _372
REMARK  146  A    between atoms: _372  and  _373
REMARK  147  A    between atoms: _372  and  _375
REMARK  148  A    between atoms: _375  and  _376
REMARK  149  A    between atoms: _376  and  _377
REMARK  150  A    between atoms: _379  and  _381
REMARK  151  A    between atoms: _381  and  _382
REMARK  152  A    between atoms: _381  and  _384
REMARK  153  A    between atoms: _384  and  _385
REMARK  154  A    between atoms: _385  and  _386
REMARK  155  A    between atoms: _389  and  _391
REMARK  156  A    between atoms: _391  and  _392
REMARK  157  A    between atoms: _395  and  _397
REMARK  158  A    between atoms: _397  and  _398
REMARK  159  A    between atoms: _397  and  _400
REMARK  160  A    between atoms: _400  and  _401
REMARK  161  A    between atoms: _406  and  _408
REMARK  162  A    between atoms: _408  and  _409
REMARK  163  A    between atoms: _411  and  _413
REMARK  164  A    between atoms: _413  and  _414
REMARK  165  A    between atoms: _416  and  _418
REMARK  166  A    between atoms: _418  and  _419
REMARK  167  A    between atoms: _418  and  _421
REMARK  168  A    between atoms: _421  and  _422
REMARK  169  A    between atoms: _427  and  _428
REMARK  170  A    between atoms: _430  and  _432
REMARK  171  A    between atoms: _432  and  _433
REMARK  172  A    between atoms: _432  and  _435
REMARK  173  A    between atoms: _435  and  _436
REMARK  174  A    between atoms: _439  and  _441
REMARK  175  A    between atoms: _441  and  _442
REMARK  176  A    between atoms: _441  and  _444
REMARK  177  A    between atoms: _444  and  _445
REMARK  178  A    between atoms: _451  and  _453
REMARK  179  A    between atoms: _453  and  _454
REMARK  180  A    between atoms: _453  and  _456
REMARK  181  A    between atoms: _458  and  _460
REMARK  182  A    between atoms: _460  and  _461
REMARK  183  A    between atoms: _463  and  _465
REMARK  184  A    between atoms: _465  and  _466
REMARK  185  A    between atoms: _465  and  _468
REMARK  186  A    between atoms: _468  and  _469
REMARK  187  A    between atoms: _475  and  _477
REMARK  188  A    between atoms: _477  and  _478
REMARK  189  A    between atoms: _477  and  _480
REMARK  190  A    between atoms: _480  and  _481
REMARK  191  A    between atoms: _481  and  _482
REMARK  192  A    between atoms: _487  and  _489
REMARK  193  A    between atoms: _489  and  _490
REMARK  194  A    between atoms: _492  and  _494
REMARK  195  A    between atoms: _494  and  _495
REMARK  196  A    between atoms: _494  and  _497
REMARK  197  A    between atoms: _497  and  _498
REMARK  198  A    between atoms: _498  and  _499
REMARK  199  A    between atoms: _499  and  _500
REMARK  200  A    between atoms: _509  and  _511
REMARK  201  A    between atoms: _511  and  _512
REMARK  202  A    between atoms: _511  and  _514
REMARK  203  A    between atoms: _516  and  _518
REMARK  204  A    between atoms: _518  and  _519
REMARK  205  A    between atoms: _518  and  _521
REMARK  206  A    between atoms: _521  and  _522
REMARK  207  A    between atoms: _527  and  _529
REMARK  208  A    between atoms: _529  and  _530
REMARK  209  A    between atoms: _529  and  _532
REMARK  210  A    between atoms: _532  and  _533
REMARK  211  A    between atoms: _533  and  _534
REMARK  212  A    between atoms: _534  and  _535
REMARK  213  A    between atoms: _535  and  _536
REMARK  214  A    between atoms: _540  and  _542
REMARK  215  A    between atoms: _542  and  _543
REMARK  216  A    between atoms: _542  and  _545
REMARK  217  A    between atoms: _545  and  _546
REMARK  218  A    between atoms: _549  and  _551
REMARK  219  A    between atoms: _551  and  _552
REMARK  220  A    between atoms: _551  and  _554
REMARK  221  A    between atoms: _557  and  _559
REMARK  222  A    between atoms: _559  and  _560
REMARK  223  A    between atoms: _559  and  _562
REMARK  224  A    between atoms: _562  and  _563
REMARK  225  A    between atoms: _563  and  _565
REMARK  226  A    between atoms: _565  and  ZN_690
REMARK  227  A    between atoms: _566  and  _568
REMARK  228  A    between atoms: _568  and  _569
REMARK  229  A    between atoms: _568  and  _571
REMARK  230  A    between atoms: _571  and  _572
REMARK  231  A    between atoms: _572  and  ZN_690
REMARK  232  A    between atoms: _573  and  _575
REMARK  233  A    between atoms: _575  and  _576
REMARK  234  A    between atoms: _575  and  _578
REMARK  235  A    between atoms: _578  and  _579
REMARK  236  A    between atoms: _584  and  _585
REMARK  237  A    between atoms: _587  and  _589
REMARK  238  A    between atoms: _589  and  _590
REMARK  239  A    between atoms: _589  and  _592
REMARK  240  A    between atoms: _592  and  _593
REMARK  241  A    between atoms: _599  and  _601
REMARK  242  A    between atoms: _601  and  _602
REMARK  243  A    between atoms: _601  and  _604
REMARK  244  A    between atoms: _604  and  _605
REMARK  245  A    between atoms: _615  and  _617
REMARK  246  A    between atoms: _617  and  _618
REMARK  247  A    between atoms: _617  and  _620
REMARK  248  A    between atoms: _620  and  _621
REMARK  249  A    between atoms: _621  and  _622
REMARK  250  A    between atoms: _627  and  _629
REMARK  251  A    between atoms: _629  and  _630
REMARK  252  A    between atoms: _629  and  _632
REMARK  253  A    between atoms: _632  and  _633
REMARK  254  A    between atoms: _636  and  _638
REMARK  255  A    between atoms: _638  and  _639
REMARK  256  A    between atoms: _638  and  _641
REMARK  257  A    between atoms: _641  and  _642
REMARK  258  A    between atoms: _642  and  _643
REMARK  259  A    between atoms: _643  and  _644
REMARK  260  A    between atoms: _644  and  _645
REMARK  261  A    between atoms: _649  and  _651
REMARK  262  A    between atoms: _651  and  _652
REMARK  263  A    between atoms: _651  and  _654
REMARK  264  A    between atoms: _654  and  _655
REMARK  265  A    between atoms: _655  and  _656
REMARK  266  A    between atoms: _656  and  _657
REMARK  267  A    between atoms: _657  and  _658
REMARK  268  A    between atoms: _662  and  _664
REMARK  269  A    between atoms: _664  and  _665
REMARK  270  A    between atoms: _664  and  _667
REMARK  271  A    between atoms: _667  and  _668
REMARK  272  A    between atoms: _673  and  _674
REMARK  273  A    between atoms: _676  and  _678
REMARK  274  A    between atoms: _678  and  _679
REMARK  275  A    between atoms: _678  and  _681
REMARK  276  A    between atoms: _681  and  _682
REMARK  277  A    between atoms: _687  and  _688
REMARK                            x       y       z     vdW  Elec       q    Type
REMARK                         _______ _______ _______ _____ _____    ______ ____
ROOT
ATOM      1  O   HOH     1     188.497 130.007  25.454  0.00  0.00    +0.000 OA
ENDROOT
TORSDOF 0
REMARK  Name = ../refined-set-2016/1o1s/1o1s_pocket.pdb
REMARK  277 active torsions:
REMARK  status: ('A' for Active; 'I' for Inactive)
REMARK    1  A    between atoms: _1  and  _3
REMARK    2  A    between atoms: _3  and  _4
REMARK    3  A    between atoms: _7  and  _9
REMARK    4  A    between atoms: _9  and  _10
REMARK    5  A    between atoms: _9  and  _12
REMARK    6  A    between atoms: _12  and  _13
REMARK    7  A    between atoms: _18  and  _19
REMARK    8  A    between atoms: _21  and  _23
REMARK    9  A    between atoms: _23  and  _24
REMARK   10  A    between atoms: _23  and  _26
REMARK   11  A    between atoms: _26  and  _27
REMARK   12  A    between atoms: _27  and  _28
REMARK   13  A    between atoms: _28  and  _29
REMARK   14  A    between atoms: _29  and  _30
REMARK   15  A    between atoms: _34  and  _36
REMARK   16  A    between atoms: _36  and  _37
REMARK   17  A    between atoms: _36  and  _39
REMARK   18  A    between atoms: _39  and  _40
REMARK   19  A    between atoms: _45  and  _47
REMARK   20  A    between atoms: _47  and  _48
REMARK   21  A    between atoms: _47  and  _50
REMARK   22  A    between atoms: _50  and  _51
REMARK   23  A    between atoms: _56  and  _57
REMARK   24  A    between atoms: _59  and  _61
REMARK   25  A    between atoms: _61  and  _62
REMARK   26  A    between atoms: _61  and  _64
REMARK   27  A    between atoms: _64  and  _65
REMARK   28  A    between atoms: _65  and  _66
REMARK   29  A    between atoms: _71  and  _73
REMARK   30  A    between atoms: _73  and  _74
REMARK   31  A    between atoms: _73  and  _76
REMARK   32  A    between atoms: _76  and  _77
REMARK   33  A    between atoms: _80  and  _82
REMARK   34  A    between atoms: _82  and  _83
REMARK   35  A    between atoms: _82  and  _85
REMARK   36  A    between atoms: _85  and  _86
REMARK   37  A    between atoms: _86  and  _87
REMARK   38  A    between atoms: _87  and  _88
REMARK   39  A    between atoms: _88  and  _89
REMARK   40  A    between atoms: _93  and  _95
REMARK   41  A    between atoms: _95  and  _96
REMARK   42  A    between atoms: _95  and  _98
REMARK   43  A    between atoms: _98  and  _99
REMARK   44  A    between atoms: _104  and  _106
REMARK   45  A    between atoms: _106  and  _107
REMARK   46  A    between atoms: _106  and  _109
REMARK   47  A    between atoms: _109  and  _110
REMARK   48  A    between atoms: _115  and  _116
REMARK   49  A    between atoms: _118  and  _120
REMARK   50  A    between atoms: _120  and  _121
REMARK   51  A    between atoms: _120  and  _123
REMARK   52  A    between atoms: _123  and  _124
REMARK   53  A    between atoms: _129  and  _131
REMARK   54  A    between atoms: _131  and  _132
REMARK   55  A    between atoms: _135  and  _137
REMARK   56  A    between atoms: _137  and  _138
REMARK   57  A    between atoms: _137  and  _140
REMARK   58  A    between atoms: _140  and  _141
REMARK   59  A    between atoms: _141  and  _142
REMARK   60  A    between atoms: _147  and  _149
REMARK   61  A    between atoms: _149  and  _150
REMARK   62  A    between atoms: _149  and  _152
REMARK   63  A    between atoms: _152  and  _153
REMARK   64  A    between atoms: _155  and  _157
REMARK   65  A    between atoms: _157  and  _158
REMARK   66  A    between atoms: _157  and  _160
REMARK   67  A    between atoms: _160  and  _161
REMARK   68  A    between atoms: _164  and  _166
REMARK   69  A    between atoms: _166  and  _167
REMARK   70  A    between atoms: _170  and  _172
REMARK   71  A    between atoms: _172  and  _173
REMARK   72  A    between atoms: _172  and  _175
REMARK   73  A    between atoms: _175  and  _176
REMARK   74  A    between atoms: _178  and  _180
REMARK   75  A    between atoms: _180  and  _181
REMARK   76  A    between atoms: _180  and  _183
REMARK   77  A    between atoms: _183  and  _184
REMARK   78  A    between atoms: _194  and  _196
REMARK   79  A    between atoms: _196  and  _197
REMARK   80  A    between atoms: _196  and  _199
REMARK   81  A    between atoms: _199  and  _200
REMARK   82  A    between atoms: _210  and  _212
REMARK   83  A    between atoms: _212  and  _213
REMARK   84  A    between atoms: _212  and  _215
REMARK   85  A    between atoms: _215  and  _216
REMARK   86  A    between atoms: _221  and  _223
REMARK   87  A    between atoms: _223  and  _224
REMARK   88  A    between atoms: _223  and  _226
REMARK   89  A    between atoms: _226  and  _227
REMARK   90  A    between atoms: _230  and  _232
REMARK   91  A    between atoms: _232  and  _233
REMARK   92  A    between atoms: _237  and  _238
REMARK   93  A    between atoms: _243  and  _245
REMARK   94  A    between atoms: _245  and  _246
REMARK   95  A    between atoms: _245  and  _248
REMARK   96  A    between atoms: _248  and  _249
REMARK   97  A    between atoms: _252  and  _254
REMARK   98  A    between atoms: _254  and  _255
REMARK   99  A    between atoms: _254  and  _257
REMARK  100  A    between atoms: _257  and  _258
REMARK  101  A    between atoms: _263  and  _264
REMARK  102  A    between atoms: _266  and  _268
REMARK  103  A    between atoms: _268  and  _269
REMARK  104  A    between atoms: _272  and  _274
REMARK  105  A    between atoms: _274  and  _275
REMARK  106  A    between atoms: _274  and  _277
REMARK  107  A    between atoms: _277  and  _278
REMARK  108  A    between atoms: _278  and  _279
REMARK  109  A    between atoms: _281  and  _283
REMARK  110  A    between atoms: _283  and  _284
REMARK  111  A    between atoms: _283  and  _286
REMARK  112  A    between atoms: _286  and  _287
REMARK  113  A    between atoms: _292  and  _294
REMARK  114  A    between atoms: _294  and  _295
REMARK  115  A    between atoms: _294  and  _297
REMARK  116  A    between atoms: _297  and  _298
REMARK  117  A    between atoms: _298  and  _299
REMARK  118  A    between atoms: _302  and  _304
REMARK  119  A    between atoms: _304  and  _305
REMARK  120  A    between atoms: _304  and  _307
REMARK  121  A    between atoms: _307  and  _308
REMARK  122  A    between atoms: _311  and  _313
REMARK  123  A    between atoms: _313  and  _314
REMARK  124  A    between atoms: _313  and  _316
REMARK  125  A    between atoms: _319  and  _321
REMARK  126  A    between atoms: _321  and  _322
REMARK  127  A    between atoms: _321  and  _324
REMARK  128  A    between atoms: _324  and  _325
REMARK  129  A    between atoms: _325  and  _326
REMARK  130  A    between atoms: _326  and  _327
REMARK  131  A    between atoms: _336  and  _338
REMARK  132  A    between atoms: _338  and  _339
REMARK  133  A    between atoms: _338  and  _341
REMARK  134  A    between atoms: _341  and  _342
REMARK  135  A    between atoms: _344  and  _346
REMARK  136  A    between atoms: _346  and  _347
REMARK  137  A    between atoms: _346  and  _349
REMARK  138  A    between atoms: _349  and  _350
REMARK  139  A    between atoms: _355  and  _356
REMARK  140  A    between atoms: _358  and  _360
REMARK  141  A    between atoms: _360  and  _361
REMARK  142  A    between atoms: _360  and  _363
REMARK  143  A    between atoms: _365  and  _367
REMARK  144  A    between atoms: _367  and  _368
REMARK  145  A    between atoms: _370  and  _372
REMARK  146  A    between atoms: _372  and  _373
REMARK  147  A    between atoms: _372  and  _375
REMARK  148  A    between atoms: _375  and  _376
REMARK  149  A    between atoms: _376  and  _377
REMARK  150  A    between atoms: _379  and  _381
REMARK  151  A    between atoms: _381  and  _382
REMARK  152  A    between atoms: _381  and  _384
REMARK  153  A    between atoms: _384  and  _385
REMARK  154  A    between atoms: _385  and  _386
REMARK  155  A    between atoms: _389  and  _391
REMARK  156  A    between atoms: _391  and  _392
REMARK  157  A    between atoms: _395  and  _397
REMARK  158  A    between atoms: _397  and  _398
REMARK  159  A    between atoms: _397  and  _400
REMARK  160  A    between atoms: _400  and  _401
REMARK  161  A    between atoms: _406  and  _408
REMARK  162  A    between atoms: _408  and  _409
REMARK  163  A    between atoms: _411  and  _413
REMARK  164  A    between atoms: _413  and  _414
REMARK  165  A    between atoms: _416  and  _418
REMARK  166  A    between atoms: _418  and  _419
REMARK  167  A    between atoms: _418  and  _421
REMARK  168  A    between atoms: _421  and  _422
REMARK  169  A    between atoms: _427  and  _428
REMARK  170  A    between atoms: _430  and  _432
REMARK  171  A    between atoms: _432  and  _433
REMARK  172  A    between atoms: _432  and  _435
REMARK  173  A    between atoms: _435  and  _436
REMARK  174  A    between atoms: _439  and  _441
REMARK  175  A    between atoms: _441  and  _442
REMARK  176  A    between atoms: _441  and  _444
REMARK  177  A    between atoms: _444  and  _445
REMARK  178  A    between atoms: _451  and  _453
REMARK  179  A    between atoms: _453  and  _454
REMARK  180  A    between atoms: _453  and  _456
REMARK  181  A    between atoms: _458  and  _460
REMARK  182  A    between atoms: _460  and  _461
REMARK  183  A    between atoms: _463  and  _465
REMARK  184  A    between atoms: _465  and  _466
REMARK  185  A    between atoms: _465  and  _468
REMARK  186  A    between atoms: _468  and  _469
REMARK  187  A    between atoms: _475  and  _477
REMARK  188  A    between atoms: _477  and  _478
REMARK  189  A    between atoms: _477  and  _480
REMARK  190  A    between atoms: _480  and  _481
REMARK  191  A    between atoms: _481  and  _482
REMARK  192  A    between atoms: _487  and  _489
REMARK  193  A    between atoms: _489  and  _490
REMARK  194  A    between atoms: _492  and  _494
REMARK  195  A    between atoms: _494  and  _495
REMARK  196  A    between atoms: _494  and  _497
REMARK  197  A    between atoms: _497  and  _498
REMARK  198  A    between atoms: _498  and  _499
REMARK  199  A    between atoms: _499  and  _500
REMARK  200  A    between atoms: _509  and  _511
REMARK  201  A    between atoms: _511  and  _512
REMARK  202  A    between atoms: _511  and  _514
REMARK  203  A    between atoms: _516  and  _518
REMARK  204  A    between atoms: _518  and  _519
REMARK  205  A    between atoms: _518  and  _521
REMARK  206  A    between atoms: _521  and  _522
REMARK  207  A    between atoms: _527  and  _529
REMARK  208  A    between atoms: _529  and  _530
REMARK  209  A    between atoms: _529  and  _532
REMARK  210  A    between atoms: _532  and  _533
REMARK  211  A    between atoms: _533  and  _534
REMARK  212  A    between atoms: _534  and  _535
REMARK  213  A    between atoms: _535  and  _536
REMARK  214  A    between atoms: _540  and  _542
REMARK  215  A    between atoms: _542  and  _543
REMARK  216  A    between atoms: _542  and  _545
REMARK  217  A    between atoms: _545  and  _546
REMARK  218  A    between atoms: _549  and  _551
REMARK  219  A    between atoms: _551  and  _552
REMARK  220  A    between atoms: _551  and  _554
REMARK  221  A    between atoms: _557  and  _559
REMARK  222  A    between atoms: _559  and  _560
REMARK  223  A    between atoms: _559  and  _562
REMARK  224  A    between atoms: _562  and  _563
REMARK  225  A    between atoms: _563  and  _565
REMARK  226  A    between atoms: _565  and  ZN_690
REMARK  227  A    between atoms: _566  and  _568
REMARK  228  A    between atoms: _568  and  _569
REMARK  229  A    between atoms: _568  and  _571
REMARK  230  A    between atoms: _571  and  _572
REMARK  231  A    between atoms: _572  and  ZN_690
REMARK  232  A    between atoms: _573  and  _575
REMARK  233  A    between atoms: _575  and  _576
REMARK  234  A    between atoms: _575  and  _578
REMARK  235  A    between atoms: _578  and  _579
REMARK  236  A    between atoms: _584  and  _585
REMARK  237  A    between atoms: _587  and  _589
REMARK  238  A    between atoms: _589  and  _590
REMARK  239  A    between atoms: _589  and  _592
REMARK  240  A    between atoms: _592  and  _593
REMARK  241  A    between atoms: _599  and  _601
REMARK  242  A    between atoms: _601  and  _602
REMARK  243  A    between atoms: _601  and  _604
REMARK  244  A    between atoms: _604  and  _605
REMARK  245  A    between atoms: _615  and  _617
REMARK  246  A    between atoms: _617  and  _618
REMARK  247  A    between atoms: _617  and  _620
REMARK  248  A    between atoms: _620  and  _621
REMARK  249  A    between atoms: _621  and  _622
REMARK  250  A    between atoms: _627  and  _629
REMARK  251  A    between atoms: _629  and  _630
REMARK  252  A    between atoms: _629  and  _632
REMARK  253  A    between atoms: _632  and  _633
REMARK  254  A    between atoms: _636  and  _638
REMARK  255  A    between atoms: _638  and  _639
REMARK  256  A    between atoms: _638  and  _641
REMARK  257  A    between atoms: _641  and  _642
REMARK  258  A    between atoms: _642  and  _643
REMARK  259  A    between atoms: _643  and  _644
REMARK  260  A    between atoms: _644  and  _645
REMARK  261  A    between atoms: _649  and  _651
REMARK  262  A    between atoms: _651  and  _652
REMARK  263  A    between atoms: _651  and  _654
REMARK  264  A    between atoms: _654  and  _655
REMARK  265  A    between atoms: _655  and  _656
REMARK  266  A    between atoms: _656  and  _657
REMARK  267  A    between atoms: _657  and  _658
REMARK  268  A    between atoms: _662  and  _664
REMARK  269  A    between atoms: _664  and  _665
REMARK  270  A    between atoms: _664  and  _667
REMARK  271  A    between atoms: _667  and  _668
REMARK  272  A    between atoms: _673  and  _674
REMARK  273  A    between atoms: _676  and  _678
REMARK  274  A    between atoms: _678  and  _679
REMARK  275  A    between atoms: _678  and  _681
REMARK  276  A    between atoms: _681  and  _682
REMARK  277  A    between atoms: _687  and  _688
REMARK                            x       y       z     vdW  Elec       q    Type
REMARK                         _______ _______ _______ _____ _____    ______ ____
ROOT
ATOM      1  O   HOH     1     205.374 126.239  35.278  0.00  0.00    +0.000 OA
ENDROOT
TORSDOF 0
REMARK  Name = ../refined-set-2016/1o1s/1o1s_pocket.pdb
REMARK  277 active torsions:
REMARK  status: ('A' for Active; 'I' for Inactive)
REMARK    1  A    between atoms: _1  and  _3
REMARK    2  A    between atoms: _3  and  _4
REMARK    3  A    between atoms: _7  and  _9
REMARK    4  A    between atoms: _9  and  _10
REMARK    5  A    between atoms: _9  and  _12
REMARK    6  A    between atoms: _12  and  _13
REMARK    7  A    between atoms: _18  and  _19
REMARK    8  A    between atoms: _21  and  _23
REMARK    9  A    between atoms: _23  and  _24
REMARK   10  A    between atoms: _23  and  _26
REMARK   11  A    between atoms: _26  and  _27
REMARK   12  A    between atoms: _27  and  _28
REMARK   13  A    between atoms: _28  and  _29
REMARK   14  A    between atoms: _29  and  _30
REMARK   15  A    between atoms: _34  and  _36
REMARK   16  A    between atoms: _36  and  _37
REMARK   17  A    between atoms: _36  and  _39
REMARK   18  A    between atoms: _39  and  _40
REMARK   19  A    between atoms: _45  and  _47
REMARK   20  A    between atoms: _47  and  _48
REMARK   21  A    between atoms: _47  and  _50
REMARK   22  A    between atoms: _50  and  _51
REMARK   23  A    between atoms: _56  and  _57
REMARK   24  A    between atoms: _59  and  _61
REMARK   25  A    between atoms: _61  and  _62
REMARK   26  A    between atoms: _61  and  _64
REMARK   27  A    between atoms: _64  and  _65
REMARK   28  A    between atoms: _65  and  _66
REMARK   29  A    between atoms: _71  and  _73
REMARK   30  A    between atoms: _73  and  _74
REMARK   31  A    between atoms: _73  and  _76
REMARK   32  A    between atoms: _76  and  _77
REMARK   33  A    between atoms: _80  and  _82
REMARK   34  A    between atoms: _82  and  _83
REMARK   35  A    between atoms: _82  and  _85
REMARK   36  A    between atoms: _85  and  _86
REMARK   37  A    between atoms: _86  and  _87
REMARK   38  A    between atoms: _87  and  _88
REMARK   39  A    between atoms: _88  and  _89
REMARK   40  A    between atoms: _93  and  _95
REMARK   41  A    between atoms: _95  and  _96
REMARK   42  A    between atoms: _95  and  _98
REMARK   43  A    between atoms: _98  and  _99
REMARK   44  A    between atoms: _104  and  _106
REMARK   45  A    between atoms: _106  and  _107
REMARK   46  A    between atoms: _106  and  _109
REMARK   47  A    between atoms: _109  and  _110
REMARK   48  A    between atoms: _115  and  _116
REMARK   49  A    between atoms: _118  and  _120
REMARK   50  A    between atoms: _120  and  _121
REMARK   51  A    between atoms: _120  and  _123
REMARK   52  A    between atoms: _123  and  _124
REMARK   53  A    between atoms: _129  and  _131
REMARK   54  A    between atoms: _131  and  _132
REMARK   55  A    between atoms: _135  and  _137
REMARK   56  A    between atoms: _137  and  _138
REMARK   57  A    between atoms: _137  and  _140
REMARK   58  A    between atoms: _140  and  _141
REMARK   59  A    between atoms: _141  and  _142
REMARK   60  A    between atoms: _147  and  _149
REMARK   61  A    between atoms: _149  and  _150
REMARK   62  A    between atoms: _149  and  _152
REMARK   63  A    between atoms: _152  and  _153
REMARK   64  A    between atoms: _155  and  _157
REMARK   65  A    between atoms: _157  and  _158
REMARK   66  A    between atoms: _157  and  _160
REMARK   67  A    between atoms: _160  and  _161
REMARK   68  A    between atoms: _164  and  _166
REMARK   69  A    between atoms: _166  and  _167
REMARK   70  A    between atoms: _170  and  _172
REMARK   71  A    between atoms: _172  and  _173
REMARK   72  A    between atoms: _172  and  _175
REMARK   73  A    between atoms: _175  and  _176
REMARK   74  A    between atoms: _178  and  _180
REMARK   75  A    between atoms: _180  and  _181
REMARK   76  A    between atoms: _180  and  _183
REMARK   77  A    between atoms: _183  and  _184
REMARK   78  A    between atoms: _194  and  _196
REMARK   79  A    between atoms: _196  and  _197
REMARK   80  A    between atoms: _196  and  _199
REMARK   81  A    between atoms: _199  and  _200
REMARK   82  A    between atoms: _210  and  _212
REMARK   83  A    between atoms: _212  and  _213
REMARK   84  A    between atoms: _212  and  _215
REMARK   85  A    between atoms: _215  and  _216
REMARK   86  A    between atoms: _221  and  _223
REMARK   87  A    between atoms: _223  and  _224
REMARK   88  A    between atoms: _223  and  _226
REMARK   89  A    between atoms: _226  and  _227
REMARK   90  A    between atoms: _230  and  _232
REMARK   91  A    between atoms: _232  and  _233
REMARK   92  A    between atoms: _237  and  _238
REMARK   93  A    between atoms: _243  and  _245
REMARK   94  A    between atoms: _245  and  _246
REMARK   95  A    between atoms: _245  and  _248
REMARK   96  A    between atoms: _248  and  _249
REMARK   97  A    between atoms: _252  and  _254
REMARK   98  A    between atoms: _254  and  _255
REMARK   99  A    between atoms: _254  and  _257
REMARK  100  A    between atoms: _257  and  _258
REMARK  101  A    between atoms: _263  and  _264
REMARK  102  A    between atoms: _266  and  _268
REMARK  103  A    between atoms: _268  and  _269
REMARK  104  A    between atoms: _272  and  _274
REMARK  105  A    between atoms: _274  and  _275
REMARK  106  A    between atoms: _274  and  _277
REMARK  107  A    between atoms: _277  and  _278
REMARK  108  A    between atoms: _278  and  _279
REMARK  109  A    between atoms: _281  and  _283
REMARK  110  A    between atoms: _283  and  _284
REMARK  111  A    between atoms: _283  and  _286
REMARK  112  A    between atoms: _286  and  _287
REMARK  113  A    between atoms: _292  and  _294
REMARK  114  A    between atoms: _294  and  _295
REMARK  115  A    between atoms: _294  and  _297
REMARK  116  A    between atoms: _297  and  _298
REMARK  117  A    between atoms: _298  and  _299
REMARK  118  A    between atoms: _302  and  _304
REMARK  119  A    between atoms: _304  and  _305
REMARK  120  A    between atoms: _304  and  _307
REMARK  121  A    between atoms: _307  and  _308
REMARK  122  A    between atoms: _311  and  _313
REMARK  123  A    between atoms: _313  and  _314
REMARK  124  A    between atoms: _313  and  _316
REMARK  125  A    between atoms: _319  and  _321
REMARK  126  A    between atoms: _321  and  _322
REMARK  127  A    between atoms: _321  and  _324
REMARK  128  A    between atoms: _324  and  _325
REMARK  129  A    between atoms: _325  and  _326
REMARK  130  A    between atoms: _326  and  _327
REMARK  131  A    between atoms: _336  and  _338
REMARK  132  A    between atoms: _338  and  _339
REMARK  133  A    between atoms: _338  and  _341
REMARK  134  A    between atoms: _341  and  _342
REMARK  135  A    between atoms: _344  and  _346
REMARK  136  A    between atoms: _346  and  _347
REMARK  137  A    between atoms: _346  and  _349
REMARK  138  A    between atoms: _349  and  _350
REMARK  139  A    between atoms: _355  and  _356
REMARK  140  A    between atoms: _358  and  _360
REMARK  141  A    between atoms: _360  and  _361
REMARK  142  A    between atoms: _360  and  _363
REMARK  143  A    between atoms: _365  and  _367
REMARK  144  A    between atoms: _367  and  _368
REMARK  145  A    between atoms: _370  and  _372
REMARK  146  A    between atoms: _372  and  _373
REMARK  147  A    between atoms: _372  and  _375
REMARK  148  A    between atoms: _375  and  _376
REMARK  149  A    between atoms: _376  and  _377
REMARK  150  A    between atoms: _379  and  _381
REMARK  151  A    between atoms: _381  and  _382
REMARK  152  A    between atoms: _381  and  _384
REMARK  153  A    between atoms: _384  and  _385
REMARK  154  A    between atoms: _385  and  _386
REMARK  155  A    between atoms: _389  and  _391
REMARK  156  A    between atoms: _391  and  _392
REMARK  157  A    between atoms: _395  and  _397
REMARK  158  A    between atoms: _397  and  _398
REMARK  159  A    between atoms: _397  and  _400
REMARK  160  A    between atoms: _400  and  _401
REMARK  161  A    between atoms: _406  and  _408
REMARK  162  A    between atoms: _408  and  _409
REMARK  163  A    between atoms: _411  and  _413
REMARK  164  A    between atoms: _413  and  _414
REMARK  165  A    between atoms: _416  and  _418
REMARK  166  A    between atoms: _418  and  _419
REMARK  167  A    between atoms: _418  and  _421
REMARK  168  A    between atoms: _421  and  _422
REMARK  169  A    between atoms: _427  and  _428
REMARK  170  A    between atoms: _430  and  _432
REMARK  171  A    between atoms: _432  and  _433
REMARK  172  A    between atoms: _432  and  _435
REMARK  173  A    between atoms: _435  and  _436
REMARK  174  A    between atoms: _439  and  _441
REMARK  175  A    between atoms: _441  and  _442
REMARK  176  A    between atoms: _441  and  _444
REMARK  177  A    between atoms: _444  and  _445
REMARK  178  A    between atoms: _451  and  _453
REMARK  179  A    between atoms: _453  and  _454
REMARK  180  A    between atoms: _453  and  _456
REMARK  181  A    between atoms: _458  and  _460
REMARK  182  A    between atoms: _460  and  _461
REMARK  183  A    between atoms: _463  and  _465
REMARK  184  A    between atoms: _465  and  _466
REMARK  185  A    between atoms: _465  and  _468
REMARK  186  A    between atoms: _468  and  _469
REMARK  187  A    between atoms: _475  and  _477
REMARK  188  A    between atoms: _477  and  _478
REMARK  189  A    between atoms: _477  and  _480
REMARK  190  A    between atoms: _480  and  _481
REMARK  191  A    between atoms: _481  and  _482
REMARK  192  A    between atoms: _487  and  _489
REMARK  193  A    between atoms: _489  and  _490
REMARK  194  A    between atoms: _492  and  _494
REMARK  195  A    between atoms: _494  and  _495
REMARK  196  A    between atoms: _494  and  _497
REMARK  197  A    between atoms: _497  and  _498
REMARK  198  A    between atoms: _498  and  _499
REMARK  199  A    between atoms: _499  and  _500
REMARK  200  A    between atoms: _509  and  _511
REMARK  201  A    between atoms: _511  and  _512
REMARK  202  A    between atoms: _511  and  _514
REMARK  203  A    between atoms: _516  and  _518
REMARK  204  A    between atoms: _518  and  _519
REMARK  205  A    between atoms: _518  and  _521
REMARK  206  A    between atoms: _521  and  _522
REMARK  207  A    between atoms: _527  and  _529
REMARK  208  A    between atoms: _529  and  _530
REMARK  209  A    between atoms: _529  and  _532
REMARK  210  A    between atoms: _532  and  _533
REMARK  211  A    between atoms: _533  and  _534
REMARK  212  A    between atoms: _534  and  _535
REMARK  213  A    between atoms: _535  and  _536
REMARK  214  A    between atoms: _540  and  _542
REMARK  215  A    between atoms: _542  and  _543
REMARK  216  A    between atoms: _542  and  _545
REMARK  217  A    between atoms: _545  and  _546
REMARK  218  A    between atoms: _549  and  _551
REMARK  219  A    between atoms: _551  and  _552
REMARK  220  A    between atoms: _551  and  _554
REMARK  221  A    between atoms: _557  and  _559
REMARK  222  A    between atoms: _559  and  _560
REMARK  223  A    between atoms: _559  and  _562
REMARK  224  A    between atoms: _562  and  _563
REMARK  225  A    between atoms: _563  and  _565
REMARK  226  A    between atoms: _565  and  ZN_690
REMARK  227  A    between atoms: _566  and  _568
REMARK  228  A    between atoms: _568  and  _569
REMARK  229  A    between atoms: _568  and  _571
REMARK  230  A    between atoms: _571  and  _572
REMARK  231  A    between atoms: _572  and  ZN_690
REMARK  232  A    between atoms: _573  and  _575
REMARK  233  A    between atoms: _575  and  _576
REMARK  234  A    between atoms: _575  and  _578
REMARK  235  A    between atoms: _578  and  _579
REMARK  236  A    between atoms: _584  and  _585
REMARK  237  A    between atoms: _587  and  _589
REMARK  238  A    between atoms: _589  and  _590
REMARK  239  A    between atoms: _589  and  _592
REMARK  240  A    between atoms: _592  and  _593
REMARK  241  A    between atoms: _599  and  _601
REMARK  242  A    between atoms: _601  and  _602
REMARK  243  A    between atoms: _601  and  _604
REMARK  244  A    between atoms: _604  and  _605
REMARK  245  A    between atoms: _615  and  _617
REMARK  246  A    between atoms: _617  and  _618
REMARK  247  A    between atoms: _617  and  _620
REMARK  248  A    between atoms: _620  and  _621
REMARK  249  A    between atoms: _621  and  _622
REMARK  250  A    between atoms: _627  and  _629
REMARK  251  A    between atoms: _629  and  _630
REMARK  252  A    between atoms: _629  and  _632
REMARK  253  A    between atoms: _632  and  _633
REMARK  254  A    between atoms: _636  and  _638
REMARK  255  A    between atoms: _638  and  _639
REMARK  256  A    between atoms: _638  and  _641
REMARK  257  A    between atoms: _641  and  _642
REMARK  258  A    between atoms: _642  and  _643
REMARK  259  A    between atoms: _643  and  _644
REMARK  260  A    between atoms: _644  and  _645
REMARK  261  A    between atoms: _649  and  _651
REMARK  262  A    between atoms: _651  and  _652
REMARK  263  A    between atoms: _651  and  _654
REMARK  264  A    between atoms: _654  and  _655
REMARK  265  A    between atoms: _655  and  _656
REMARK  266  A    between atoms: _656  and  _657
REMARK  267  A    between atoms: _657  and  _658
REMARK  268  A    between atoms: _662  and  _664
REMARK  269  A    between atoms: _664  and  _665
REMARK  270  A    between atoms: _664  and  _667
REMARK  271  A    between atoms: _667  and  _668
REMARK  272  A    between atoms: _673  and  _674
REMARK  273  A    between atoms: _676  and  _678
REMARK  274  A    between atoms: _678  and  _679
REMARK  275  A    between atoms: _678  and  _681
REMARK  276  A    between atoms: _681  and  _682
REMARK  277  A    between atoms: _687  and  _688
REMARK                            x       y       z     vdW  Elec       q    Type
REMARK                         _______ _______ _______ _____ _____    ______ ____
ROOT
ATOM      1  O   HOH     1     203.284 127.340  33.625  0.00  0.00    +0.000 OA
ENDROOT
TORSDOF 0
REMARK  Name = ../refined-set-2016/1o1s/1o1s_pocket.pdb
REMARK  277 active torsions:
REMARK  status: ('A' for Active; 'I' for Inactive)
REMARK    1  A    between atoms: _1  and  _3
REMARK    2  A    between atoms: _3  and  _4
REMARK    3  A    between atoms: _7  and  _9
REMARK    4  A    between atoms: _9  and  _10
REMARK    5  A    between atoms: _9  and  _12
REMARK    6  A    between atoms: _12  and  _13
REMARK    7  A    between atoms: _18  and  _19
REMARK    8  A    between atoms: _21  and  _23
REMARK    9  A    between atoms: _23  and  _24
REMARK   10  A    between atoms: _23  and  _26
REMARK   11  A    between atoms: _26  and  _27
REMARK   12  A    between atoms: _27  and  _28
REMARK   13  A    between atoms: _28  and  _29
REMARK   14  A    between atoms: _29  and  _30
REMARK   15  A    between atoms: _34  and  _36
REMARK   16  A    between atoms: _36  and  _37
REMARK   17  A    between atoms: _36  and  _39
REMARK   18  A    between atoms: _39  and  _40
REMARK   19  A    between atoms: _45  and  _47
REMARK   20  A    between atoms: _47  and  _48
REMARK   21  A    between atoms: _47  and  _50
REMARK   22  A    between atoms: _50  and  _51
REMARK   23  A    between atoms: _56  and  _57
REMARK   24  A    between atoms: _59  and  _61
REMARK   25  A    between atoms: _61  and  _62
REMARK   26  A    between atoms: _61  and  _64
REMARK   27  A    between atoms: _64  and  _65
REMARK   28  A    between atoms: _65  and  _66
REMARK   29  A    between atoms: _71  and  _73
REMARK   30  A    between atoms: _73  and  _74
REMARK   31  A    between atoms: _73  and  _76
REMARK   32  A    between atoms: _76  and  _77
REMARK   33  A    between atoms: _80  and  _82
REMARK   34  A    between atoms: _82  and  _83
REMARK   35  A    between atoms: _82  and  _85
REMARK   36  A    between atoms: _85  and  _86
REMARK   37  A    between atoms: _86  and  _87
REMARK   38  A    between atoms: _87  and  _88
REMARK   39  A    between atoms: _88  and  _89
REMARK   40  A    between atoms: _93  and  _95
REMARK   41  A    between atoms: _95  and  _96
REMARK   42  A    between atoms: _95  and  _98
REMARK   43  A    between atoms: _98  and  _99
REMARK   44  A    between atoms: _104  and  _106
REMARK   45  A    between atoms: _106  and  _107
REMARK   46  A    between atoms: _106  and  _109
REMARK   47  A    between atoms: _109  and  _110
REMARK   48  A    between atoms: _115  and  _116
REMARK   49  A    between atoms: _118  and  _120
REMARK   50  A    between atoms: _120  and  _121
REMARK   51  A    between atoms: _120  and  _123
REMARK   52  A    between atoms: _123  and  _124
REMARK   53  A    between atoms: _129  and  _131
REMARK   54  A    between atoms: _131  and  _132
REMARK   55  A    between atoms: _135  and  _137
REMARK   56  A    between atoms: _137  and  _138
REMARK   57  A    between atoms: _137  and  _140
REMARK   58  A    between atoms: _140  and  _141
REMARK   59  A    between atoms: _141  and  _142
REMARK   60  A    between atoms: _147  and  _149
REMARK   61  A    between atoms: _149  and  _150
REMARK   62  A    between atoms: _149  and  _152
REMARK   63  A    between atoms: _152  and  _153
REMARK   64  A    between atoms: _155  and  _157
REMARK   65  A    between atoms: _157  and  _158
REMARK   66  A    between atoms: _157  and  _160
REMARK   67  A    between atoms: _160  and  _161
REMARK   68  A    between atoms: _164  and  _166
REMARK   69  A    between atoms: _166  and  _167
REMARK   70  A    between atoms: _170  and  _172
REMARK   71  A    between atoms: _172  and  _173
REMARK   72  A    between atoms: _172  and  _175
REMARK   73  A    between atoms: _175  and  _176
REMARK   74  A    between atoms: _178  and  _180
REMARK   75  A    between atoms: _180  and  _181
REMARK   76  A    between atoms: _180  and  _183
REMARK   77  A    between atoms: _183  and  _184
REMARK   78  A    between atoms: _194  and  _196
REMARK   79  A    between atoms: _196  and  _197
REMARK   80  A    between atoms: _196  and  _199
REMARK   81  A    between atoms: _199  and  _200
REMARK   82  A    between atoms: _210  and  _212
REMARK   83  A    between atoms: _212  and  _213
REMARK   84  A    between atoms: _212  and  _215
REMARK   85  A    between atoms: _215  and  _216
REMARK   86  A    between atoms: _221  and  _223
REMARK   87  A    between atoms: _223  and  _224
REMARK   88  A    between atoms: _223  and  _226
REMARK   89  A    between atoms: _226  and  _227
REMARK   90  A    between atoms: _230  and  _232
REMARK   91  A    between atoms: _232  and  _233
REMARK   92  A    between atoms: _237  and  _238
REMARK   93  A    between atoms: _243  and  _245
REMARK   94  A    between atoms: _245  and  _246
REMARK   95  A    between atoms: _245  and  _248
REMARK   96  A    between atoms: _248  and  _249
REMARK   97  A    between atoms: _252  and  _254
REMARK   98  A    between atoms: _254  and  _255
REMARK   99  A    between atoms: _254  and  _257
REMARK  100  A    between atoms: _257  and  _258
REMARK  101  A    between atoms: _263  and  _264
REMARK  102  A    between atoms: _266  and  _268
REMARK  103  A    between atoms: _268  and  _269
REMARK  104  A    between atoms: _272  and  _274
REMARK  105  A    between atoms: _274  and  _275
REMARK  106  A    between atoms: _274  and  _277
REMARK  107  A    between atoms: _277  and  _278
REMARK  108  A    between atoms: _278  and  _279
REMARK  109  A    between atoms: _281  and  _283
REMARK  110  A    between atoms: _283  and  _284
REMARK  111  A    between atoms: _283  and  _286
REMARK  112  A    between atoms: _286  and  _287
REMARK  113  A    between atoms: _292  and  _294
REMARK  114  A    between atoms: _294  and  _295
REMARK  115  A    between atoms: _294  and  _297
REMARK  116  A    between atoms: _297  and  _298
REMARK  117  A    between atoms: _298  and  _299
REMARK  118  A    between atoms: _302  and  _304
REMARK  119  A    between atoms: _304  and  _305
REMARK  120  A    between atoms: _304  and  _307
REMARK  121  A    between atoms: _307  and  _308
REMARK  122  A    between atoms: _311  and  _313
REMARK  123  A    between atoms: _313  and  _314
REMARK  124  A    between atoms: _313  and  _316
REMARK  125  A    between atoms: _319  and  _321
REMARK  126  A    between atoms: _321  and  _322
REMARK  127  A    between atoms: _321  and  _324
REMARK  128  A    between atoms: _324  and  _325
REMARK  129  A    between atoms: _325  and  _326
REMARK  130  A    between atoms: _326  and  _327
REMARK  131  A    between atoms: _336  and  _338
REMARK  132  A    between atoms: _338  and  _339
REMARK  133  A    between atoms: _338  and  _341
REMARK  134  A    between atoms: _341  and  _342
REMARK  135  A    between atoms: _344  and  _346
REMARK  136  A    between atoms: _346  and  _347
REMARK  137  A    between atoms: _346  and  _349
REMARK  138  A    between atoms: _349  and  _350
REMARK  139  A    between atoms: _355  and  _356
REMARK  140  A    between atoms: _358  and  _360
REMARK  141  A    between atoms: _360  and  _361
REMARK  142  A    between atoms: _360  and  _363
REMARK  143  A    between atoms: _365  and  _367
REMARK  144  A    between atoms: _367  and  _368
REMARK  145  A    between atoms: _370  and  _372
REMARK  146  A    between atoms: _372  and  _373
REMARK  147  A    between atoms: _372  and  _375
REMARK  148  A    between atoms: _375  and  _376
REMARK  149  A    between atoms: _376  and  _377
REMARK  150  A    between atoms: _379  and  _381
REMARK  151  A    between atoms: _381  and  _382
REMARK  152  A    between atoms: _381  and  _384
REMARK  153  A    between atoms: _384  and  _385
REMARK  154  A    between atoms: _385  and  _386
REMARK  155  A    between atoms: _389  and  _391
REMARK  156  A    between atoms: _391  and  _392
REMARK  157  A    between atoms: _395  and  _397
REMARK  158  A    between atoms: _397  and  _398
REMARK  159  A    between atoms: _397  and  _400
REMARK  160  A    between atoms: _400  and  _401
REMARK  161  A    between atoms: _406  and  _408
REMARK  162  A    between atoms: _408  and  _409
REMARK  163  A    between atoms: _411  and  _413
REMARK  164  A    between atoms: _413  and  _414
REMARK  165  A    between atoms: _416  and  _418
REMARK  166  A    between atoms: _418  and  _419
REMARK  167  A    between atoms: _418  and  _421
REMARK  168  A    between atoms: _421  and  _422
REMARK  169  A    between atoms: _427  and  _428
REMARK  170  A    between atoms: _430  and  _432
REMARK  171  A    between atoms: _432  and  _433
REMARK  172  A    between atoms: _432  and  _435
REMARK  173  A    between atoms: _435  and  _436
REMARK  174  A    between atoms: _439  and  _441
REMARK  175  A    between atoms: _441  and  _442
REMARK  176  A    between atoms: _441  and  _444
REMARK  177  A    between atoms: _444  and  _445
REMARK  178  A    between atoms: _451  and  _453
REMARK  179  A    between atoms: _453  and  _454
REMARK  180  A    between atoms: _453  and  _456
REMARK  181  A    between atoms: _458  and  _460
REMARK  182  A    between atoms: _460  and  _461
REMARK  183  A    between atoms: _463  and  _465
REMARK  184  A    between atoms: _465  and  _466
REMARK  185  A    between atoms: _465  and  _468
REMARK  186  A    between atoms: _468  and  _469
REMARK  187  A    between atoms: _475  and  _477
REMARK  188  A    between atoms: _477  and  _478
REMARK  189  A    between atoms: _477  and  _480
REMARK  190  A    between atoms: _480  and  _481
REMARK  191  A    between atoms: _481  and  _482
REMARK  192  A    between atoms: _487  and  _489
REMARK  193  A    between atoms: _489  and  _490
REMARK  194  A    between atoms: _492  and  _494
REMARK  195  A    between atoms: _494  and  _495
REMARK  196  A    between atoms: _494  and  _497
REMARK  197  A    between atoms: _497  and  _498
REMARK  198  A    between atoms: _498  and  _499
REMARK  199  A    between atoms: _499  and  _500
REMARK  200  A    between atoms: _509  and  _511
REMARK  201  A    between atoms: _511  and  _512
REMARK  202  A    between atoms: _511  and  _514
REMARK  203  A    between atoms: _516  and  _518
REMARK  204  A    between atoms: _518  and  _519
REMARK  205  A    between atoms: _518  and  _521
REMARK  206  A    between atoms: _521  and  _522
REMARK  207  A    between atoms: _527  and  _529
REMARK  208  A    between atoms: _529  and  _530
REMARK  209  A    between atoms: _529  and  _532
REMARK  210  A    between atoms: _532  and  _533
REMARK  211  A    between atoms: _533  and  _534
REMARK  212  A    between atoms: _534  and  _535
REMARK  213  A    between atoms: _535  and  _536
REMARK  214  A    between atoms: _540  and  _542
REMARK  215  A    between atoms: _542  and  _543
REMARK  216  A    between atoms: _542  and  _545
REMARK  217  A    between atoms: _545  and  _546
REMARK  218  A    between atoms: _549  and  _551
REMARK  219  A    between atoms: _551  and  _552
REMARK  220  A    between atoms: _551  and  _554
REMARK  221  A    between atoms: _557  and  _559
REMARK  222  A    between atoms: _559  and  _560
REMARK  223  A    between atoms: _559  and  _562
REMARK  224  A    between atoms: _562  and  _563
REMARK  225  A    between atoms: _563  and  _565
REMARK  226  A    between atoms: _565  and  ZN_690
REMARK  227  A    between atoms: _566  and  _568
REMARK  228  A    between atoms: _568  and  _569
REMARK  229  A    between atoms: _568  and  _571
REMARK  230  A    between atoms: _571  and  _572
REMARK  231  A    between atoms: _572  and  ZN_690
REMARK  232  A    between atoms: _573  and  _575
REMARK  233  A    between atoms: _575  and  _576
REMARK  234  A    between atoms: _575  and  _578
REMARK  235  A    between atoms: _578  and  _579
REMARK  236  A    between atoms: _584  and  _585
REMARK  237  A    between atoms: _587  and  _589
REMARK  238  A    between atoms: _589  and  _590
REMARK  239  A    between atoms: _589  and  _592
REMARK  240  A    between atoms: _592  and  _593
REMARK  241  A    between atoms: _599  and  _601
REMARK  242  A    between atoms: _601  and  _602
REMARK  243  A    between atoms: _601  and  _604
REMARK  244  A    between atoms: _604  and  _605
REMARK  245  A    between atoms: _615  and  _617
REMARK  246  A    between atoms: _617  and  _618
REMARK  247  A    between atoms: _617  and  _620
REMARK  248  A    between atoms: _620  and  _621
REMARK  249  A    between atoms: _621  and  _622
REMARK  250  A    between atoms: _627  and  _629
REMARK  251  A    between atoms: _629  and  _630
REMARK  252  A    between atoms: _629  and  _632
REMARK  253  A    between atoms: _632  and  _633
REMARK  254  A    between atoms: _636  and  _638
REMARK  255  A    between atoms: _638  and  _639
REMARK  256  A    between atoms: _638  and  _641
REMARK  257  A    between atoms: _641  and  _642
REMARK  258  A    between atoms: _642  and  _643
REMARK  259  A    between atoms: _643  and  _644
REMARK  260  A    between atoms: _644  and  _645
REMARK  261  A    between atoms: _649  and  _651
REMARK  262  A    between atoms: _651  and  _652
REMARK  263  A    between atoms: _651  and  _654
REMARK  264  A    between atoms: _654  and  _655
REMARK  265  A    between atoms: _655  and  _656
REMARK  266  A    between atoms: _656  and  _657
REMARK  267  A    between atoms: _657  and  _658
REMARK  268  A    between atoms: _662  and  _664
REMARK  269  A    between atoms: _664  and  _665
REMARK  270  A    between atoms: _664  and  _667
REMARK  271  A    between atoms: _667  and  _668
REMARK  272  A    between atoms: _673  and  _674
REMARK  273  A    between atoms: _676  and  _678
REMARK  274  A    between atoms: _678  and  _679
REMARK  275  A    between atoms: _678  and  _681
REMARK  276  A    between atoms: _681  and  _682
REMARK  277  A    between atoms: _687  and  _688
REMARK                            x       y       z     vdW  Elec       q    Type
REMARK                         _______ _______ _______ _____ _____    ______ ____
ROOT
ATOM      1  O   HOH     1     200.582 131.391  31.638  0.00  0.00    +0.000 OA
ENDROOT
TORSDOF 0
REMARK  Name = ../refined-set-2016/1o1s/1o1s_pocket.pdb
REMARK  277 active torsions:
REMARK  status: ('A' for Active; 'I' for Inactive)
REMARK    1  A    between atoms: _1  and  _3
REMARK    2  A    between atoms: _3  and  _4
REMARK    3  A    between atoms: _7  and  _9
REMARK    4  A    between atoms: _9  and  _10
REMARK    5  A    between atoms: _9  and  _12
REMARK    6  A    between atoms: _12  and  _13
REMARK    7  A    between atoms: _18  and  _19
REMARK    8  A    between atoms: _21  and  _23
REMARK    9  A    between atoms: _23  and  _24
REMARK   10  A    between atoms: _23  and  _26
REMARK   11  A    between atoms: _26  and  _27
REMARK   12  A    between atoms: _27  and  _28
REMARK   13  A    between atoms: _28  and  _29
REMARK   14  A    between atoms: _29  and  _30
REMARK   15  A    between atoms: _34  and  _36
REMARK   16  A    between atoms: _36  and  _37
REMARK   17  A    between atoms: _36  and  _39
REMARK   18  A    between atoms: _39  and  _40
REMARK   19  A    between atoms: _45  and  _47
REMARK   20  A    between atoms: _47  and  _48
REMARK   21  A    between atoms: _47  and  _50
REMARK   22  A    between atoms: _50  and  _51
REMARK   23  A    between atoms: _56  and  _57
REMARK   24  A    between atoms: _59  and  _61
REMARK   25  A    between atoms: _61  and  _62
REMARK   26  A    between atoms: _61  and  _64
REMARK   27  A    between atoms: _64  and  _65
REMARK   28  A    between atoms: _65  and  _66
REMARK   29  A    between atoms: _71  and  _73
REMARK   30  A    between atoms: _73  and  _74
REMARK   31  A    between atoms: _73  and  _76
REMARK   32  A    between atoms: _76  and  _77
REMARK   33  A    between atoms: _80  and  _82
REMARK   34  A    between atoms: _82  and  _83
REMARK   35  A    between atoms: _82  and  _85
REMARK   36  A    between atoms: _85  and  _86
REMARK   37  A    between atoms: _86  and  _87
REMARK   38  A    between atoms: _87  and  _88
REMARK   39  A    between atoms: _88  and  _89
REMARK   40  A    between atoms: _93  and  _95
REMARK   41  A    between atoms: _95  and  _96
REMARK   42  A    between atoms: _95  and  _98
REMARK   43  A    between atoms: _98  and  _99
REMARK   44  A    between atoms: _104  and  _106
REMARK   45  A    between atoms: _106  and  _107
REMARK   46  A    between atoms: _106  and  _109
REMARK   47  A    between atoms: _109  and  _110
REMARK   48  A    between atoms: _115  and  _116
REMARK   49  A    between atoms: _118  and  _120
REMARK   50  A    between atoms: _120  and  _121
REMARK   51  A    between atoms: _120  and  _123
REMARK   52  A    between atoms: _123  and  _124
REMARK   53  A    between atoms: _129  and  _131
REMARK   54  A    between atoms: _131  and  _132
REMARK   55  A    between atoms: _135  and  _137
REMARK   56  A    between atoms: _137  and  _138
REMARK   57  A    between atoms: _137  and  _140
REMARK   58  A    between atoms: _140  and  _141
REMARK   59  A    between atoms: _141  and  _142
REMARK   60  A    between atoms: _147  and  _149
REMARK   61  A    between atoms: _149  and  _150
REMARK   62  A    between atoms: _149  and  _152
REMARK   63  A    between atoms: _152  and  _153
REMARK   64  A    between atoms: _155  and  _157
REMARK   65  A    between atoms: _157  and  _158
REMARK   66  A    between atoms: _157  and  _160
REMARK   67  A    between atoms: _160  and  _161
REMARK   68  A    between atoms: _164  and  _166
REMARK   69  A    between atoms: _166  and  _167
REMARK   70  A    between atoms: _170  and  _172
REMARK   71  A    between atoms: _172  and  _173
REMARK   72  A    between atoms: _172  and  _175
REMARK   73  A    between atoms: _175  and  _176
REMARK   74  A    between atoms: _178  and  _180
REMARK   75  A    between atoms: _180  and  _181
REMARK   76  A    between atoms: _180  and  _183
REMARK   77  A    between atoms: _183  and  _184
REMARK   78  A    between atoms: _194  and  _196
REMARK   79  A    between atoms: _196  and  _197
REMARK   80  A    between atoms: _196  and  _199
REMARK   81  A    between atoms: _199  and  _200
REMARK   82  A    between atoms: _210  and  _212
REMARK   83  A    between atoms: _212  and  _213
REMARK   84  A    between atoms: _212  and  _215
REMARK   85  A    between atoms: _215  and  _216
REMARK   86  A    between atoms: _221  and  _223
REMARK   87  A    between atoms: _223  and  _224
REMARK   88  A    between atoms: _223  and  _226
REMARK   89  A    between atoms: _226  and  _227
REMARK   90  A    between atoms: _230  and  _232
REMARK   91  A    between atoms: _232  and  _233
REMARK   92  A    between atoms: _237  and  _238
REMARK   93  A    between atoms: _243  and  _245
REMARK   94  A    between atoms: _245  and  _246
REMARK   95  A    between atoms: _245  and  _248
REMARK   96  A    between atoms: _248  and  _249
REMARK   97  A    between atoms: _252  and  _254
REMARK   98  A    between atoms: _254  and  _255
REMARK   99  A    between atoms: _254  and  _257
REMARK  100  A    between atoms: _257  and  _258
REMARK  101  A    between atoms: _263  and  _264
REMARK  102  A    between atoms: _266  and  _268
REMARK  103  A    between atoms: _268  and  _269
REMARK  104  A    between atoms: _272  and  _274
REMARK  105  A    between atoms: _274  and  _275
REMARK  106  A    between atoms: _274  and  _277
REMARK  107  A    between atoms: _277  and  _278
REMARK  108  A    between atoms: _278  and  _279
REMARK  109  A    between atoms: _281  and  _283
REMARK  110  A    between atoms: _283  and  _284
REMARK  111  A    between atoms: _283  and  _286
REMARK  112  A    between atoms: _286  and  _287
REMARK  113  A    between atoms: _292  and  _294
REMARK  114  A    between atoms: _294  and  _295
REMARK  115  A    between atoms: _294  and  _297
REMARK  116  A    between atoms: _297  and  _298
REMARK  117  A    between atoms: _298  and  _299
REMARK  118  A    between atoms: _302  and  _304
REMARK  119  A    between atoms: _304  and  _305
REMARK  120  A    between atoms: _304  and  _307
REMARK  121  A    between atoms: _307  and  _308
REMARK  122  A    between atoms: _311  and  _313
REMARK  123  A    between atoms: _313  and  _314
REMARK  124  A    between atoms: _313  and  _316
REMARK  125  A    between atoms: _319  and  _321
REMARK  126  A    between atoms: _321  and  _322
REMARK  127  A    between atoms: _321  and  _324
REMARK  128  A    between atoms: _324  and  _325
REMARK  129  A    between atoms: _325  and  _326
REMARK  130  A    between atoms: _326  and  _327
REMARK  131  A    between atoms: _336  and  _338
REMARK  132  A    between atoms: _338  and  _339
REMARK  133  A    between atoms: _338  and  _341
REMARK  134  A    between atoms: _341  and  _342
REMARK  135  A    between atoms: _344  and  _346
REMARK  136  A    between atoms: _346  and  _347
REMARK  137  A    between atoms: _346  and  _349
REMARK  138  A    between atoms: _349  and  _350
REMARK  139  A    between atoms: _355  and  _356
REMARK  140  A    between atoms: _358  and  _360
REMARK  141  A    between atoms: _360  and  _361
REMARK  142  A    between atoms: _360  and  _363
REMARK  143  A    between atoms: _365  and  _367
REMARK  144  A    between atoms: _367  and  _368
REMARK  145  A    between atoms: _370  and  _372
REMARK  146  A    between atoms: _372  and  _373
REMARK  147  A    between atoms: _372  and  _375
REMARK  148  A    between atoms: _375  and  _376
REMARK  149  A    between atoms: _376  and  _377
REMARK  150  A    between atoms: _379  and  _381
REMARK  151  A    between atoms: _381  and  _382
REMARK  152  A    between atoms: _381  and  _384
REMARK  153  A    between atoms: _384  and  _385
REMARK  154  A    between atoms: _385  and  _386
REMARK  155  A    between atoms: _389  and  _391
REMARK  156  A    between atoms: _391  and  _392
REMARK  157  A    between atoms: _395  and  _397
REMARK  158  A    between atoms: _397  and  _398
REMARK  159  A    between atoms: _397  and  _400
REMARK  160  A    between atoms: _400  and  _401
REMARK  161  A    between atoms: _406  and  _408
REMARK  162  A    between atoms: _408  and  _409
REMARK  163  A    between atoms: _411  and  _413
REMARK  164  A    between atoms: _413  and  _414
REMARK  165  A    between atoms: _416  and  _418
REMARK  166  A    between atoms: _418  and  _419
REMARK  167  A    between atoms: _418  and  _421
REMARK  168  A    between atoms: _421  and  _422
REMARK  169  A    between atoms: _427  and  _428
REMARK  170  A    between atoms: _430  and  _432
REMARK  171  A    between atoms: _432  and  _433
REMARK  172  A    between atoms: _432  and  _435
REMARK  173  A    between atoms: _435  and  _436
REMARK  174  A    between atoms: _439  and  _441
REMARK  175  A    between atoms: _441  and  _442
REMARK  176  A    between atoms: _441  and  _444
REMARK  177  A    between atoms: _444  and  _445
REMARK  178  A    between atoms: _451  and  _453
REMARK  179  A    between atoms: _453  and  _454
REMARK  180  A    between atoms: _453  and  _456
REMARK  181  A    between atoms: _458  and  _460
REMARK  182  A    between atoms: _460  and  _461
REMARK  183  A    between atoms: _463  and  _465
REMARK  184  A    between atoms: _465  and  _466
REMARK  185  A    between atoms: _465  and  _468
REMARK  186  A    between atoms: _468  and  _469
REMARK  187  A    between atoms: _475  and  _477
REMARK  188  A    between atoms: _477  and  _478
REMARK  189  A    between atoms: _477  and  _480
REMARK  190  A    between atoms: _480  and  _481
REMARK  191  A    between atoms: _481  and  _482
REMARK  192  A    between atoms: _487  and  _489
REMARK  193  A    between atoms: _489  and  _490
REMARK  194  A    between atoms: _492  and  _494
REMARK  195  A    between atoms: _494  and  _495
REMARK  196  A    between atoms: _494  and  _497
REMARK  197  A    between atoms: _497  and  _498
REMARK  198  A    between atoms: _498  and  _499
REMARK  199  A    between atoms: _499  and  _500
REMARK  200  A    between atoms: _509  and  _511
REMARK  201  A    between atoms: _511  and  _512
REMARK  202  A    between atoms: _511  and  _514
REMARK  203  A    between atoms: _516  and  _518
REMARK  204  A    between atoms: _518  and  _519
REMARK  205  A    between atoms: _518  and  _521
REMARK  206  A    between atoms: _521  and  _522
REMARK  207  A    between atoms: _527  and  _529
REMARK  208  A    between atoms: _529  and  _530
REMARK  209  A    between atoms: _529  and  _532
REMARK  210  A    between atoms: _532  and  _533
REMARK  211  A    between atoms: _533  and  _534
REMARK  212  A    between atoms: _534  and  _535
REMARK  213  A    between atoms: _535  and  _536
REMARK  214  A    between atoms: _540  and  _542
REMARK  215  A    between atoms: _542  and  _543
REMARK  216  A    between atoms: _542  and  _545
REMARK  217  A    between atoms: _545  and  _546
REMARK  218  A    between atoms: _549  and  _551
REMARK  219  A    between atoms: _551  and  _552
REMARK  220  A    between atoms: _551  and  _554
REMARK  221  A    between atoms: _557  and  _559
REMARK  222  A    between atoms: _559  and  _560
REMARK  223  A    between atoms: _559  and  _562
REMARK  224  A    between atoms: _562  and  _563
REMARK  225  A    between atoms: _563  and  _565
REMARK  226  A    between atoms: _565  and  ZN_690
REMARK  227  A    between atoms: _566  and  _568
REMARK  228  A    between atoms: _568  and  _569
REMARK  229  A    between atoms: _568  and  _571
REMARK  230  A    between atoms: _571  and  _572
REMARK  231  A    between atoms: _572  and  ZN_690
REMARK  232  A    between atoms: _573  and  _575
REMARK  233  A    between atoms: _575  and  _576
REMARK  234  A    between atoms: _575  and  _578
REMARK  235  A    between atoms: _578  and  _579
REMARK  236  A    between atoms: _584  and  _585
REMARK  237  A    between atoms: _587  and  _589
REMARK  238  A    between atoms: _589  and  _590
REMARK  239  A    between atoms: _589  and  _592
REMARK  240  A    between atoms: _592  and  _593
REMARK  241  A    between atoms: _599  and  _601
REMARK  242  A    between atoms: _601  and  _602
REMARK  243  A    between atoms: _601  and  _604
REMARK  244  A    between atoms: _604  and  _605
REMARK  245  A    between atoms: _615  and  _617
REMARK  246  A    between atoms: _617  and  _618
REMARK  247  A    between atoms: _617  and  _620
REMARK  248  A    between atoms: _620  and  _621
REMARK  249  A    between atoms: _621  and  _622
REMARK  250  A    between atoms: _627  and  _629
REMARK  251  A    between atoms: _629  and  _630
REMARK  252  A    between atoms: _629  and  _632
REMARK  253  A    between atoms: _632  and  _633
REMARK  254  A    between atoms: _636  and  _638
REMARK  255  A    between atoms: _638  and  _639
REMARK  256  A    between atoms: _638  and  _641
REMARK  257  A    between atoms: _641  and  _642
REMARK  258  A    between atoms: _642  and  _643
REMARK  259  A    between atoms: _643  and  _644
REMARK  260  A    between atoms: _644  and  _645
REMARK  261  A    between atoms: _649  and  _651
REMARK  262  A    between atoms: _651  and  _652
REMARK  263  A    between atoms: _651  and  _654
REMARK  264  A    between atoms: _654  and  _655
REMARK  265  A    between atoms: _655  and  _656
REMARK  266  A    between atoms: _656  and  _657
REMARK  267  A    between atoms: _657  and  _658
REMARK  268  A    between atoms: _662  and  _664
REMARK  269  A    between atoms: _664  and  _665
REMARK  270  A    between atoms: _664  and  _667
REMARK  271  A    between atoms: _667  and  _668
REMARK  272  A    between atoms: _673  and  _674
REMARK  273  A    between atoms: _676  and  _678
REMARK  274  A    between atoms: _678  and  _679
REMARK  275  A    between atoms: _678  and  _681
REMARK  276  A    between atoms: _681  and  _682
REMARK  277  A    between atoms: _687  and  _688
REMARK                            x       y       z     vdW  Elec       q    Type
REMARK                         _______ _______ _______ _____ _____    ______ ____
ROOT
ATOM      1  O   HOH     1     199.823 127.946  36.552  0.00  0.00    +0.000 OA
ENDROOT
TORSDOF 0
REMARK  Name = ../refined-set-2016/1o1s/1o1s_pocket.pdb
REMARK  277 active torsions:
REMARK  status: ('A' for Active; 'I' for Inactive)
REMARK    1  A    between atoms: _1  and  _3
REMARK    2  A    between atoms: _3  and  _4
REMARK    3  A    between atoms: _7  and  _9
REMARK    4  A    between atoms: _9  and  _10
REMARK    5  A    between atoms: _9  and  _12
REMARK    6  A    between atoms: _12  and  _13
REMARK    7  A    between atoms: _18  and  _19
REMARK    8  A    between atoms: _21  and  _23
REMARK    9  A    between atoms: _23  and  _24
REMARK   10  A    between atoms: _23  and  _26
REMARK   11  A    between atoms: _26  and  _27
REMARK   12  A    between atoms: _27  and  _28
REMARK   13  A    between atoms: _28  and  _29
REMARK   14  A    between atoms: _29  and  _30
REMARK   15  A    between atoms: _34  and  _36
REMARK   16  A    between atoms: _36  and  _37
REMARK   17  A    between atoms: _36  and  _39
REMARK   18  A    between atoms: _39  and  _40
REMARK   19  A    between atoms: _45  and  _47
REMARK   20  A    between atoms: _47  and  _48
REMARK   21  A    between atoms: _47  and  _50
REMARK   22  A    between atoms: _50  and  _51
REMARK   23  A    between atoms: _56  and  _57
REMARK   24  A    between atoms: _59  and  _61
REMARK   25  A    between atoms: _61  and  _62
REMARK   26  A    between atoms: _61  and  _64
REMARK   27  A    between atoms: _64  and  _65
REMARK   28  A    between atoms: _65  and  _66
REMARK   29  A    between atoms: _71  and  _73
REMARK   30  A    between atoms: _73  and  _74
REMARK   31  A    between atoms: _73  and  _76
REMARK   32  A    between atoms: _76  and  _77
REMARK   33  A    between atoms: _80  and  _82
REMARK   34  A    between atoms: _82  and  _83
REMARK   35  A    between atoms: _82  and  _85
REMARK   36  A    between atoms: _85  and  _86
REMARK   37  A    between atoms: _86  and  _87
REMARK   38  A    between atoms: _87  and  _88
REMARK   39  A    between atoms: _88  and  _89
REMARK   40  A    between atoms: _93  and  _95
REMARK   41  A    between atoms: _95  and  _96
REMARK   42  A    between atoms: _95  and  _98
REMARK   43  A    between atoms: _98  and  _99
REMARK   44  A    between atoms: _104  and  _106
REMARK   45  A    between atoms: _106  and  _107
REMARK   46  A    between atoms: _106  and  _109
REMARK   47  A    between atoms: _109  and  _110
REMARK   48  A    between atoms: _115  and  _116
REMARK   49  A    between atoms: _118  and  _120
REMARK   50  A    between atoms: _120  and  _121
REMARK   51  A    between atoms: _120  and  _123
REMARK   52  A    between atoms: _123  and  _124
REMARK   53  A    between atoms: _129  and  _131
REMARK   54  A    between atoms: _131  and  _132
REMARK   55  A    between atoms: _135  and  _137
REMARK   56  A    between atoms: _137  and  _138
REMARK   57  A    between atoms: _137  and  _140
REMARK   58  A    between atoms: _140  and  _141
REMARK   59  A    between atoms: _141  and  _142
REMARK   60  A    between atoms: _147  and  _149
REMARK   61  A    between atoms: _149  and  _150
REMARK   62  A    between atoms: _149  and  _152
REMARK   63  A    between atoms: _152  and  _153
REMARK   64  A    between atoms: _155  and  _157
REMARK   65  A    between atoms: _157  and  _158
REMARK   66  A    between atoms: _157  and  _160
REMARK   67  A    between atoms: _160  and  _161
REMARK   68  A    between atoms: _164  and  _166
REMARK   69  A    between atoms: _166  and  _167
REMARK   70  A    between atoms: _170  and  _172
REMARK   71  A    between atoms: _172  and  _173
REMARK   72  A    between atoms: _172  and  _175
REMARK   73  A    between atoms: _175  and  _176
REMARK   74  A    between atoms: _178  and  _180
REMARK   75  A    between atoms: _180  and  _181
REMARK   76  A    between atoms: _180  and  _183
REMARK   77  A    between atoms: _183  and  _184
REMARK   78  A    between atoms: _194  and  _196
REMARK   79  A    between atoms: _196  and  _197
REMARK   80  A    between atoms: _196  and  _199
REMARK   81  A    between atoms: _199  and  _200
REMARK   82  A    between atoms: _210  and  _212
REMARK   83  A    between atoms: _212  and  _213
REMARK   84  A    between atoms: _212  and  _215
REMARK   85  A    between atoms: _215  and  _216
REMARK   86  A    between atoms: _221  and  _223
REMARK   87  A    between atoms: _223  and  _224
REMARK   88  A    between atoms: _223  and  _226
REMARK   89  A    between atoms: _226  and  _227
REMARK   90  A    between atoms: _230  and  _232
REMARK   91  A    between atoms: _232  and  _233
REMARK   92  A    between atoms: _237  and  _238
REMARK   93  A    between atoms: _243  and  _245
REMARK   94  A    between atoms: _245  and  _246
REMARK   95  A    between atoms: _245  and  _248
REMARK   96  A    between atoms: _248  and  _249
REMARK   97  A    between atoms: _252  and  _254
REMARK   98  A    between atoms: _254  and  _255
REMARK   99  A    between atoms: _254  and  _257
REMARK  100  A    between atoms: _257  and  _258
REMARK  101  A    between atoms: _263  and  _264
REMARK  102  A    between atoms: _266  and  _268
REMARK  103  A    between atoms: _268  and  _269
REMARK  104  A    between atoms: _272  and  _274
REMARK  105  A    between atoms: _274  and  _275
REMARK  106  A    between atoms: _274  and  _277
REMARK  107  A    between atoms: _277  and  _278
REMARK  108  A    between atoms: _278  and  _279
REMARK  109  A    between atoms: _281  and  _283
REMARK  110  A    between atoms: _283  and  _284
REMARK  111  A    between atoms: _283  and  _286
REMARK  112  A    between atoms: _286  and  _287
REMARK  113  A    between atoms: _292  and  _294
REMARK  114  A    between atoms: _294  and  _295
REMARK  115  A    between atoms: _294  and  _297
REMARK  116  A    between atoms: _297  and  _298
REMARK  117  A    between atoms: _298  and  _299
REMARK  118  A    between atoms: _302  and  _304
REMARK  119  A    between atoms: _304  and  _305
REMARK  120  A    between atoms: _304  and  _307
REMARK  121  A    between atoms: _307  and  _308
REMARK  122  A    between atoms: _311  and  _313
REMARK  123  A    between atoms: _313  and  _314
REMARK  124  A    between atoms: _313  and  _316
REMARK  125  A    between atoms: _319  and  _321
REMARK  126  A    between atoms: _321  and  _322
REMARK  127  A    between atoms: _321  and  _324
REMARK  128  A    between atoms: _324  and  _325
REMARK  129  A    between atoms: _325  and  _326
REMARK  130  A    between atoms: _326  and  _327
REMARK  131  A    between atoms: _336  and  _338
REMARK  132  A    between atoms: _338  and  _339
REMARK  133  A    between atoms: _338  and  _341
REMARK  134  A    between atoms: _341  and  _342
REMARK  135  A    between atoms: _344  and  _346
REMARK  136  A    between atoms: _346  and  _347
REMARK  137  A    between atoms: _346  and  _349
REMARK  138  A    between atoms: _349  and  _350
REMARK  139  A    between atoms: _355  and  _356
REMARK  140  A    between atoms: _358  and  _360
REMARK  141  A    between atoms: _360  and  _361
REMARK  142  A    between atoms: _360  and  _363
REMARK  143  A    between atoms: _365  and  _367
REMARK  144  A    between atoms: _367  and  _368
REMARK  145  A    between atoms: _370  and  _372
REMARK  146  A    between atoms: _372  and  _373
REMARK  147  A    between atoms: _372  and  _375
REMARK  148  A    between atoms: _375  and  _376
REMARK  149  A    between atoms: _376  and  _377
REMARK  150  A    between atoms: _379  and  _381
REMARK  151  A    between atoms: _381  and  _382
REMARK  152  A    between atoms: _381  and  _384
REMARK  153  A    between atoms: _384  and  _385
REMARK  154  A    between atoms: _385  and  _386
REMARK  155  A    between atoms: _389  and  _391
REMARK  156  A    between atoms: _391  and  _392
REMARK  157  A    between atoms: _395  and  _397
REMARK  158  A    between atoms: _397  and  _398
REMARK  159  A    between atoms: _397  and  _400
REMARK  160  A    between atoms: _400  and  _401
REMARK  161  A    between atoms: _406  and  _408
REMARK  162  A    between atoms: _408  and  _409
REMARK  163  A    between atoms: _411  and  _413
REMARK  164  A    between atoms: _413  and  _414
REMARK  165  A    between atoms: _416  and  _418
REMARK  166  A    between atoms: _418  and  _419
REMARK  167  A    between atoms: _418  and  _421
REMARK  168  A    between atoms: _421  and  _422
REMARK  169  A    between atoms: _427  and  _428
REMARK  170  A    between atoms: _430  and  _432
REMARK  171  A    between atoms: _432  and  _433
REMARK  172  A    between atoms: _432  and  _435
REMARK  173  A    between atoms: _435  and  _436
REMARK  174  A    between atoms: _439  and  _441
REMARK  175  A    between atoms: _441  and  _442
REMARK  176  A    between atoms: _441  and  _444
REMARK  177  A    between atoms: _444  and  _445
REMARK  178  A    between atoms: _451  and  _453
REMARK  179  A    between atoms: _453  and  _454
REMARK  180  A    between atoms: _453  and  _456
REMARK  181  A    between atoms: _458  and  _460
REMARK  182  A    between atoms: _460  and  _461
REMARK  183  A    between atoms: _463  and  _465
REMARK  184  A    between atoms: _465  and  _466
REMARK  185  A    between atoms: _465  and  _468
REMARK  186  A    between atoms: _468  and  _469
REMARK  187  A    between atoms: _475  and  _477
REMARK  188  A    between atoms: _477  and  _478
REMARK  189  A    between atoms: _477  and  _480
REMARK  190  A    between atoms: _480  and  _481
REMARK  191  A    between atoms: _481  and  _482
REMARK  192  A    between atoms: _487  and  _489
REMARK  193  A    between atoms: _489  and  _490
REMARK  194  A    between atoms: _492  and  _494
REMARK  195  A    between atoms: _494  and  _495
REMARK  196  A    between atoms: _494  and  _497
REMARK  197  A    between atoms: _497  and  _498
REMARK  198  A    between atoms: _498  and  _499
REMARK  199  A    between atoms: _499  and  _500
REMARK  200  A    between atoms: _509  and  _511
REMARK  201  A    between atoms: _511  and  _512
REMARK  202  A    between atoms: _511  and  _514
REMARK  203  A    between atoms: _516  and  _518
REMARK  204  A    between atoms: _518  and  _519
REMARK  205  A    between atoms: _518  and  _521
REMARK  206  A    between atoms: _521  and  _522
REMARK  207  A    between atoms: _527  and  _529
REMARK  208  A    between atoms: _529  and  _530
REMARK  209  A    between atoms: _529  and  _532
REMARK  210  A    between atoms: _532  and  _533
REMARK  211  A    between atoms: _533  and  _534
REMARK  212  A    between atoms: _534  and  _535
REMARK  213  A    between atoms: _535  and  _536
REMARK  214  A    between atoms: _540  and  _542
REMARK  215  A    between atoms: _542  and  _543
REMARK  216  A    between atoms: _542  and  _545
REMARK  217  A    between atoms: _545  and  _546
REMARK  218  A    between atoms: _549  and  _551
REMARK  219  A    between atoms: _551  and  _552
REMARK  220  A    between atoms: _551  and  _554
REMARK  221  A    between atoms: _557  and  _559
REMARK  222  A    between atoms: _559  and  _560
REMARK  223  A    between atoms: _559  and  _562
REMARK  224  A    between atoms: _562  and  _563
REMARK  225  A    between atoms: _563  and  _565
REMARK  226  A    between atoms: _565  and  ZN_690
REMARK  227  A    between atoms: _566  and  _568
REMARK  228  A    between atoms: _568  and  _569
REMARK  229  A    between atoms: _568  and  _571
REMARK  230  A    between atoms: _571  and  _572
REMARK  231  A    between atoms: _572  and  ZN_690
REMARK  232  A    between atoms: _573  and  _575
REMARK  233  A    between atoms: _575  and  _576
REMARK  234  A    between atoms: _575  and  _578
REMARK  235  A    between atoms: _578  and  _579
REMARK  236  A    between atoms: _584  and  _585
REMARK  237  A    between atoms: _587  and  _589
REMARK  238  A    between atoms: _589  and  _590
REMARK  239  A    between atoms: _589  and  _592
REMARK  240  A    between atoms: _592  and  _593
REMARK  241  A    between atoms: _599  and  _601
REMARK  242  A    between atoms: _601  and  _602
REMARK  243  A    between atoms: _601  and  _604
REMARK  244  A    between atoms: _604  and  _605
REMARK  245  A    between atoms: _615  and  _617
REMARK  246  A    between atoms: _617  and  _618
REMARK  247  A    between atoms: _617  and  _620
REMARK  248  A    between atoms: _620  and  _621
REMARK  249  A    between atoms: _621  and  _622
REMARK  250  A    between atoms: _627  and  _629
REMARK  251  A    between atoms: _629  and  _630
REMARK  252  A    between atoms: _629  and  _632
REMARK  253  A    between atoms: _632  and  _633
REMARK  254  A    between atoms: _636  and  _638
REMARK  255  A    between atoms: _638  and  _639
REMARK  256  A    between atoms: _638  and  _641
REMARK  257  A    between atoms: _641  and  _642
REMARK  258  A    between atoms: _642  and  _643
REMARK  259  A    between atoms: _643  and  _644
REMARK  260  A    between atoms: _644  and  _645
REMARK  261  A    between atoms: _649  and  _651
REMARK  262  A    between atoms: _651  and  _652
REMARK  263  A    between atoms: _651  and  _654
REMARK  264  A    between atoms: _654  and  _655
REMARK  265  A    between atoms: _655  and  _656
REMARK  266  A    between atoms: _656  and  _657
REMARK  267  A    between atoms: _657  and  _658
REMARK  268  A    between atoms: _662  and  _664
REMARK  269  A    between atoms: _664  and  _665
REMARK  270  A    between atoms: _664  and  _667
REMARK  271  A    between atoms: _667  and  _668
REMARK  272  A    between atoms: _673  and  _674
REMARK  273  A    between atoms: _676  and  _678
REMARK  274  A    between atoms: _678  and  _679
REMARK  275  A    between atoms: _678  and  _681
REMARK  276  A    between atoms: _681  and  _682
REMARK  277  A    between atoms: _687  and  _688
REMARK                            x       y       z     vdW  Elec       q    Type
REMARK                         _______ _______ _______ _____ _____    ______ ____
ROOT
ATOM      1  O   HOH     1     186.118 125.960  23.979  0.00  0.00    +0.000 OA
ENDROOT
TORSDOF 0
REMARK  Name = ../refined-set-2016/1o1s/1o1s_pocket.pdb
REMARK  277 active torsions:
REMARK  status: ('A' for Active; 'I' for Inactive)
REMARK    1  A    between atoms: _1  and  _3
REMARK    2  A    between atoms: _3  and  _4
REMARK    3  A    between atoms: _7  and  _9
REMARK    4  A    between atoms: _9  and  _10
REMARK    5  A    between atoms: _9  and  _12
REMARK    6  A    between atoms: _12  and  _13
REMARK    7  A    between atoms: _18  and  _19
REMARK    8  A    between atoms: _21  and  _23
REMARK    9  A    between atoms: _23  and  _24
REMARK   10  A    between atoms: _23  and  _26
REMARK   11  A    between atoms: _26  and  _27
REMARK   12  A    between atoms: _27  and  _28
REMARK   13  A    between atoms: _28  and  _29
REMARK   14  A    between atoms: _29  and  _30
REMARK   15  A    between atoms: _34  and  _36
REMARK   16  A    between atoms: _36  and  _37
REMARK   17  A    between atoms: _36  and  _39
REMARK   18  A    between atoms: _39  and  _40
REMARK   19  A    between atoms: _45  and  _47
REMARK   20  A    between atoms: _47  and  _48
REMARK   21  A    between atoms: _47  and  _50
REMARK   22  A    between atoms: _50  and  _51
REMARK   23  A    between atoms: _56  and  _57
REMARK   24  A    between atoms: _59  and  _61
REMARK   25  A    between atoms: _61  and  _62
REMARK   26  A    between atoms: _61  and  _64
REMARK   27  A    between atoms: _64  and  _65
REMARK   28  A    between atoms: _65  and  _66
REMARK   29  A    between atoms: _71  and  _73
REMARK   30  A    between atoms: _73  and  _74
REMARK   31  A    between atoms: _73  and  _76
REMARK   32  A    between atoms: _76  and  _77
REMARK   33  A    between atoms: _80  and  _82
REMARK   34  A    between atoms: _82  and  _83
REMARK   35  A    between atoms: _82  and  _85
REMARK   36  A    between atoms: _85  and  _86
REMARK   37  A    between atoms: _86  and  _87
REMARK   38  A    between atoms: _87  and  _88
REMARK   39  A    between atoms: _88  and  _89
REMARK   40  A    between atoms: _93  and  _95
REMARK   41  A    between atoms: _95  and  _96
REMARK   42  A    between atoms: _95  and  _98
REMARK   43  A    between atoms: _98  and  _99
REMARK   44  A    between atoms: _104  and  _106
REMARK   45  A    between atoms: _106  and  _107
REMARK   46  A    between atoms: _106  and  _109
REMARK   47  A    between atoms: _109  and  _110
REMARK   48  A    between atoms: _115  and  _116
REMARK   49  A    between atoms: _118  and  _120
REMARK   50  A    between atoms: _120  and  _121
REMARK   51  A    between atoms: _120  and  _123
REMARK   52  A    between atoms: _123  and  _124
REMARK   53  A    between atoms: _129  and  _131
REMARK   54  A    between atoms: _131  and  _132
REMARK   55  A    between atoms: _135  and  _137
REMARK   56  A    between atoms: _137  and  _138
REMARK   57  A    between atoms: _137  and  _140
REMARK   58  A    between atoms: _140  and  _141
REMARK   59  A    between atoms: _141  and  _142
REMARK   60  A    between atoms: _147  and  _149
REMARK   61  A    between atoms: _149  and  _150
REMARK   62  A    between atoms: _149  and  _152
REMARK   63  A    between atoms: _152  and  _153
REMARK   64  A    between atoms: _155  and  _157
REMARK   65  A    between atoms: _157  and  _158
REMARK   66  A    between atoms: _157  and  _160
REMARK   67  A    between atoms: _160  and  _161
REMARK   68  A    between atoms: _164  and  _166
REMARK   69  A    between atoms: _166  and  _167
REMARK   70  A    between atoms: _170  and  _172
REMARK   71  A    between atoms: _172  and  _173
REMARK   72  A    between atoms: _172  and  _175
REMARK   73  A    between atoms: _175  and  _176
REMARK   74  A    between atoms: _178  and  _180
REMARK   75  A    between atoms: _180  and  _181
REMARK   76  A    between atoms: _180  and  _183
REMARK   77  A    between atoms: _183  and  _184
REMARK   78  A    between atoms: _194  and  _196
REMARK   79  A    between atoms: _196  and  _197
REMARK   80  A    between atoms: _196  and  _199
REMARK   81  A    between atoms: _199  and  _200
REMARK   82  A    between atoms: _210  and  _212
REMARK   83  A    between atoms: _212  and  _213
REMARK   84  A    between atoms: _212  and  _215
REMARK   85  A    between atoms: _215  and  _216
REMARK   86  A    between atoms: _221  and  _223
REMARK   87  A    between atoms: _223  and  _224
REMARK   88  A    between atoms: _223  and  _226
REMARK   89  A    between atoms: _226  and  _227
REMARK   90  A    between atoms: _230  and  _232
REMARK   91  A    between atoms: _232  and  _233
REMARK   92  A    between atoms: _237  and  _238
REMARK   93  A    between atoms: _243  and  _245
REMARK   94  A    between atoms: _245  and  _246
REMARK   95  A    between atoms: _245  and  _248
REMARK   96  A    between atoms: _248  and  _249
REMARK   97  A    between atoms: _252  and  _254
REMARK   98  A    between atoms: _254  and  _255
REMARK   99  A    between atoms: _254  and  _257
REMARK  100  A    between atoms: _257  and  _258
REMARK  101  A    between atoms: _263  and  _264
REMARK  102  A    between atoms: _266  and  _268
REMARK  103  A    between atoms: _268  and  _269
REMARK  104  A    between atoms: _272  and  _274
REMARK  105  A    between atoms: _274  and  _275
REMARK  106  A    between atoms: _274  and  _277
REMARK  107  A    between atoms: _277  and  _278
REMARK  108  A    between atoms: _278  and  _279
REMARK  109  A    between atoms: _281  and  _283
REMARK  110  A    between atoms: _283  and  _284
REMARK  111  A    between atoms: _283  and  _286
REMARK  112  A    between atoms: _286  and  _287
REMARK  113  A    between atoms: _292  and  _294
REMARK  114  A    between atoms: _294  and  _295
REMARK  115  A    between atoms: _294  and  _297
REMARK  116  A    between atoms: _297  and  _298
REMARK  117  A    between atoms: _298  and  _299
REMARK  118  A    between atoms: _302  and  _304
REMARK  119  A    between atoms: _304  and  _305
REMARK  120  A    between atoms: _304  and  _307
REMARK  121  A    between atoms: _307  and  _308
REMARK  122  A    between atoms: _311  and  _313
REMARK  123  A    between atoms: _313  and  _314
REMARK  124  A    between atoms: _313  and  _316
REMARK  125  A    between atoms: _319  and  _321
REMARK  126  A    between atoms: _321  and  _322
REMARK  127  A    between atoms: _321  and  _324
REMARK  128  A    between atoms: _324  and  _325
REMARK  129  A    between atoms: _325  and  _326
REMARK  130  A    between atoms: _326  and  _327
REMARK  131  A    between atoms: _336  and  _338
REMARK  132  A    between atoms: _338  and  _339
REMARK  133  A    between atoms: _338  and  _341
REMARK  134  A    between atoms: _341  and  _342
REMARK  135  A    between atoms: _344  and  _346
REMARK  136  A    between atoms: _346  and  _347
REMARK  137  A    between atoms: _346  and  _349
REMARK  138  A    between atoms: _349  and  _350
REMARK  139  A    between atoms: _355  and  _356
REMARK  140  A    between atoms: _358  and  _360
REMARK  141  A    between atoms: _360  and  _361
REMARK  142  A    between atoms: _360  and  _363
REMARK  143  A    between atoms: _365  and  _367
REMARK  144  A    between atoms: _367  and  _368
REMARK  145  A    between atoms: _370  and  _372
REMARK  146  A    between atoms: _372  and  _373
REMARK  147  A    between atoms: _372  and  _375
REMARK  148  A    between atoms: _375  and  _376
REMARK  149  A    between atoms: _376  and  _377
REMARK  150  A    between atoms: _379  and  _381
REMARK  151  A    between atoms: _381  and  _382
REMARK  152  A    between atoms: _381  and  _384
REMARK  153  A    between atoms: _384  and  _385
REMARK  154  A    between atoms: _385  and  _386
REMARK  155  A    between atoms: _389  and  _391
REMARK  156  A    between atoms: _391  and  _392
REMARK  157  A    between atoms: _395  and  _397
REMARK  158  A    between atoms: _397  and  _398
REMARK  159  A    between atoms: _397  and  _400
REMARK  160  A    between atoms: _400  and  _401
REMARK  161  A    between atoms: _406  and  _408
REMARK  162  A    between atoms: _408  and  _409
REMARK  163  A    between atoms: _411  and  _413
REMARK  164  A    between atoms: _413  and  _414
REMARK  165  A    between atoms: _416  and  _418
REMARK  166  A    between atoms: _418  and  _419
REMARK  167  A    between atoms: _418  and  _421
REMARK  168  A    between atoms: _421  and  _422
REMARK  169  A    between atoms: _427  and  _428
REMARK  170  A    between atoms: _430  and  _432
REMARK  171  A    between atoms: _432  and  _433
REMARK  172  A    between atoms: _432  and  _435
REMARK  173  A    between atoms: _435  and  _436
REMARK  174  A    between atoms: _439  and  _441
REMARK  175  A    between atoms: _441  and  _442
REMARK  176  A    between atoms: _441  and  _444
REMARK  177  A    between atoms: _444  and  _445
REMARK  178  A    between atoms: _451  and  _453
REMARK  179  A    between atoms: _453  and  _454
REMARK  180  A    between atoms: _453  and  _456
REMARK  181  A    between atoms: _458  and  _460
REMARK  182  A    between atoms: _460  and  _461
REMARK  183  A    between atoms: _463  and  _465
REMARK  184  A    between atoms: _465  and  _466
REMARK  185  A    between atoms: _465  and  _468
REMARK  186  A    between atoms: _468  and  _469
REMARK  187  A    between atoms: _475  and  _477
REMARK  188  A    between atoms: _477  and  _478
REMARK  189  A    between atoms: _477  and  _480
REMARK  190  A    between atoms: _480  and  _481
REMARK  191  A    between atoms: _481  and  _482
REMARK  192  A    between atoms: _487  and  _489
REMARK  193  A    between atoms: _489  and  _490
REMARK  194  A    between atoms: _492  and  _494
REMARK  195  A    between atoms: _494  and  _495
REMARK  196  A    between atoms: _494  and  _497
REMARK  197  A    between atoms: _497  and  _498
REMARK  198  A    between atoms: _498  and  _499
REMARK  199  A    between atoms: _499  and  _500
REMARK  200  A    between atoms: _509  and  _511
REMARK  201  A    between atoms: _511  and  _512
REMARK  202  A    between atoms: _511  and  _514
REMARK  203  A    between atoms: _516  and  _518
REMARK  204  A    between atoms: _518  and  _519
REMARK  205  A    between atoms: _518  and  _521
REMARK  206  A    between atoms: _521  and  _522
REMARK  207  A    between atoms: _527  and  _529
REMARK  208  A    between atoms: _529  and  _530
REMARK  209  A    between atoms: _529  and  _532
REMARK  210  A    between atoms: _532  and  _533
REMARK  211  A    between atoms: _533  and  _534
REMARK  212  A    between atoms: _534  and  _535
REMARK  213  A    between atoms: _535  and  _536
REMARK  214  A    between atoms: _540  and  _542
REMARK  215  A    between atoms: _542  and  _543
REMARK  216  A    between atoms: _542  and  _545
REMARK  217  A    between atoms: _545  and  _546
REMARK  218  A    between atoms: _549  and  _551
REMARK  219  A    between atoms: _551  and  _552
REMARK  220  A    between atoms: _551  and  _554
REMARK  221  A    between atoms: _557  and  _559
REMARK  222  A    between atoms: _559  and  _560
REMARK  223  A    between atoms: _559  and  _562
REMARK  224  A    between atoms: _562  and  _563
REMARK  225  A    between atoms: _563  and  _565
REMARK  226  A    between atoms: _565  and  ZN_690
REMARK  227  A    between atoms: _566  and  _568
REMARK  228  A    between atoms: _568  and  _569
REMARK  229  A    between atoms: _568  and  _571
REMARK  230  A    between atoms: _571  and  _572
REMARK  231  A    between atoms: _572  and  ZN_690
REMARK  232  A    between atoms: _573  and  _575
REMARK  233  A    between atoms: _575  and  _576
REMARK  234  A    between atoms: _575  and  _578
REMARK  235  A    between atoms: _578  and  _579
REMARK  236  A    between atoms: _584  and  _585
REMARK  237  A    between atoms: _587  and  _589
REMARK  238  A    between atoms: _589  and  _590
REMARK  239  A    between atoms: _589  and  _592
REMARK  240  A    between atoms: _592  and  _593
REMARK  241  A    between atoms: _599  and  _601
REMARK  242  A    between atoms: _601  and  _602
REMARK  243  A    between atoms: _601  and  _604
REMARK  244  A    between atoms: _604  and  _605
REMARK  245  A    between atoms: _615  and  _617
REMARK  246  A    between atoms: _617  and  _618
REMARK  247  A    between atoms: _617  and  _620
REMARK  248  A    between atoms: _620  and  _621
REMARK  249  A    between atoms: _621  and  _622
REMARK  250  A    between atoms: _627  and  _629
REMARK  251  A    between atoms: _629  and  _630
REMARK  252  A    between atoms: _629  and  _632
REMARK  253  A    between atoms: _632  and  _633
REMARK  254  A    between atoms: _636  and  _638
REMARK  255  A    between atoms: _638  and  _639
REMARK  256  A    between atoms: _638  and  _641
REMARK  257  A    between atoms: _641  and  _642
REMARK  258  A    between atoms: _642  and  _643
REMARK  259  A    between atoms: _643  and  _644
REMARK  260  A    between atoms: _644  and  _645
REMARK  261  A    between atoms: _649  and  _651
REMARK  262  A    between atoms: _651  and  _652
REMARK  263  A    between atoms: _651  and  _654
REMARK  264  A    between atoms: _654  and  _655
REMARK  265  A    between atoms: _655  and  _656
REMARK  266  A    between atoms: _656  and  _657
REMARK  267  A    between atoms: _657  and  _658
REMARK  268  A    between atoms: _662  and  _664
REMARK  269  A    between atoms: _664  and  _665
REMARK  270  A    between atoms: _664  and  _667
REMARK  271  A    between atoms: _667  and  _668
REMARK  272  A    between atoms: _673  and  _674
REMARK  273  A    between atoms: _676  and  _678
REMARK  274  A    between atoms: _678  and  _679
REMARK  275  A    between atoms: _678  and  _681
REMARK  276  A    between atoms: _681  and  _682
REMARK  277  A    between atoms: _687  and  _688
REMARK                            x       y       z     vdW  Elec       q    Type
REMARK                         _______ _______ _______ _____ _____    ______ ____
ROOT
ATOM      1  O   HOH     1     203.142 120.054  32.757  0.00  0.00    +0.000 OA
ENDROOT
TORSDOF 0
REMARK  Name = ../refined-set-2016/1o1s/1o1s_pocket.pdb
REMARK  277 active torsions:
REMARK  status: ('A' for Active; 'I' for Inactive)
REMARK    1  A    between atoms: _1  and  _3
REMARK    2  A    between atoms: _3  and  _4
REMARK    3  A    between atoms: _7  and  _9
REMARK    4  A    between atoms: _9  and  _10
REMARK    5  A    between atoms: _9  and  _12
REMARK    6  A    between atoms: _12  and  _13
REMARK    7  A    between atoms: _18  and  _19
REMARK    8  A    between atoms: _21  and  _23
REMARK    9  A    between atoms: _23  and  _24
REMARK   10  A    between atoms: _23  and  _26
REMARK   11  A    between atoms: _26  and  _27
REMARK   12  A    between atoms: _27  and  _28
REMARK   13  A    between atoms: _28  and  _29
REMARK   14  A    between atoms: _29  and  _30
REMARK   15  A    between atoms: _34  and  _36
REMARK   16  A    between atoms: _36  and  _37
REMARK   17  A    between atoms: _36  and  _39
REMARK   18  A    between atoms: _39  and  _40
REMARK   19  A    between atoms: _45  and  _47
REMARK   20  A    between atoms: _47  and  _48
REMARK   21  A    between atoms: _47  and  _50
REMARK   22  A    between atoms: _50  and  _51
REMARK   23  A    between atoms: _56  and  _57
REMARK   24  A    between atoms: _59  and  _61
REMARK   25  A    between atoms: _61  and  _62
REMARK   26  A    between atoms: _61  and  _64
REMARK   27  A    between atoms: _64  and  _65
REMARK   28  A    between atoms: _65  and  _66
REMARK   29  A    between atoms: _71  and  _73
REMARK   30  A    between atoms: _73  and  _74
REMARK   31  A    between atoms: _73  and  _76
REMARK   32  A    between atoms: _76  and  _77
REMARK   33  A    between atoms: _80  and  _82
REMARK   34  A    between atoms: _82  and  _83
REMARK   35  A    between atoms: _82  and  _85
REMARK   36  A    between atoms: _85  and  _86
REMARK   37  A    between atoms: _86  and  _87
REMARK   38  A    between atoms: _87  and  _88
REMARK   39  A    between atoms: _88  and  _89
REMARK   40  A    between atoms: _93  and  _95
REMARK   41  A    between atoms: _95  and  _96
REMARK   42  A    between atoms: _95  and  _98
REMARK   43  A    between atoms: _98  and  _99
REMARK   44  A    between atoms: _104  and  _106
REMARK   45  A    between atoms: _106  and  _107
REMARK   46  A    between atoms: _106  and  _109
REMARK   47  A    between atoms: _109  and  _110
REMARK   48  A    between atoms: _115  and  _116
REMARK   49  A    between atoms: _118  and  _120
REMARK   50  A    between atoms: _120  and  _121
REMARK   51  A    between atoms: _120  and  _123
REMARK   52  A    between atoms: _123  and  _124
REMARK   53  A    between atoms: _129  and  _131
REMARK   54  A    between atoms: _131  and  _132
REMARK   55  A    between atoms: _135  and  _137
REMARK   56  A    between atoms: _137  and  _138
REMARK   57  A    between atoms: _137  and  _140
REMARK   58  A    between atoms: _140  and  _141
REMARK   59  A    between atoms: _141  and  _142
REMARK   60  A    between atoms: _147  and  _149
REMARK   61  A    between atoms: _149  and  _150
REMARK   62  A    between atoms: _149  and  _152
REMARK   63  A    between atoms: _152  and  _153
REMARK   64  A    between atoms: _155  and  _157
REMARK   65  A    between atoms: _157  and  _158
REMARK   66  A    between atoms: _157  and  _160
REMARK   67  A    between atoms: _160  and  _161
REMARK   68  A    between atoms: _164  and  _166
REMARK   69  A    between atoms: _166  and  _167
REMARK   70  A    between atoms: _170  and  _172
REMARK   71  A    between atoms: _172  and  _173
REMARK   72  A    between atoms: _172  and  _175
REMARK   73  A    between atoms: _175  and  _176
REMARK   74  A    between atoms: _178  and  _180
REMARK   75  A    between atoms: _180  and  _181
REMARK   76  A    between atoms: _180  and  _183
REMARK   77  A    between atoms: _183  and  _184
REMARK   78  A    between atoms: _194  and  _196
REMARK   79  A    between atoms: _196  and  _197
REMARK   80  A    between atoms: _196  and  _199
REMARK   81  A    between atoms: _199  and  _200
REMARK   82  A    between atoms: _210  and  _212
REMARK   83  A    between atoms: _212  and  _213
REMARK   84  A    between atoms: _212  and  _215
REMARK   85  A    between atoms: _215  and  _216
REMARK   86  A    between atoms: _221  and  _223
REMARK   87  A    between atoms: _223  and  _224
REMARK   88  A    between atoms: _223  and  _226
REMARK   89  A    between atoms: _226  and  _227
REMARK   90  A    between atoms: _230  and  _232
REMARK   91  A    between atoms: _232  and  _233
REMARK   92  A    between atoms: _237  and  _238
REMARK   93  A    between atoms: _243  and  _245
REMARK   94  A    between atoms: _245  and  _246
REMARK   95  A    between atoms: _245  and  _248
REMARK   96  A    between atoms: _248  and  _249
REMARK   97  A    between atoms: _252  and  _254
REMARK   98  A    between atoms: _254  and  _255
REMARK   99  A    between atoms: _254  and  _257
REMARK  100  A    between atoms: _257  and  _258
REMARK  101  A    between atoms: _263  and  _264
REMARK  102  A    between atoms: _266  and  _268
REMARK  103  A    between atoms: _268  and  _269
REMARK  104  A    between atoms: _272  and  _274
REMARK  105  A    between atoms: _274  and  _275
REMARK  106  A    between atoms: _274  and  _277
REMARK  107  A    between atoms: _277  and  _278
REMARK  108  A    between atoms: _278  and  _279
REMARK  109  A    between atoms: _281  and  _283
REMARK  110  A    between atoms: _283  and  _284
REMARK  111  A    between atoms: _283  and  _286
REMARK  112  A    between atoms: _286  and  _287
REMARK  113  A    between atoms: _292  and  _294
REMARK  114  A    between atoms: _294  and  _295
REMARK  115  A    between atoms: _294  and  _297
REMARK  116  A    between atoms: _297  and  _298
REMARK  117  A    between atoms: _298  and  _299
REMARK  118  A    between atoms: _302  and  _304
REMARK  119  A    between atoms: _304  and  _305
REMARK  120  A    between atoms: _304  and  _307
REMARK  121  A    between atoms: _307  and  _308
REMARK  122  A    between atoms: _311  and  _313
REMARK  123  A    between atoms: _313  and  _314
REMARK  124  A    between atoms: _313  and  _316
REMARK  125  A    between atoms: _319  and  _321
REMARK  126  A    between atoms: _321  and  _322
REMARK  127  A    between atoms: _321  and  _324
REMARK  128  A    between atoms: _324  and  _325
REMARK  129  A    between atoms: _325  and  _326
REMARK  130  A    between atoms: _326  and  _327
REMARK  131  A    between atoms: _336  and  _338
REMARK  132  A    between atoms: _338  and  _339
REMARK  133  A    between atoms: _338  and  _341
REMARK  134  A    between atoms: _341  and  _342
REMARK  135  A    between atoms: _344  and  _346
REMARK  136  A    between atoms: _346  and  _347
REMARK  137  A    between atoms: _346  and  _349
REMARK  138  A    between atoms: _349  and  _350
REMARK  139  A    between atoms: _355  and  _356
REMARK  140  A    between atoms: _358  and  _360
REMARK  141  A    between atoms: _360  and  _361
REMARK  142  A    between atoms: _360  and  _363
REMARK  143  A    between atoms: _365  and  _367
REMARK  144  A    between atoms: _367  and  _368
REMARK  145  A    between atoms: _370  and  _372
REMARK  146  A    between atoms: _372  and  _373
REMARK  147  A    between atoms: _372  and  _375
REMARK  148  A    between atoms: _375  and  _376
REMARK  149  A    between atoms: _376  and  _377
REMARK  150  A    between atoms: _379  and  _381
REMARK  151  A    between atoms: _381  and  _382
REMARK  152  A    between atoms: _381  and  _384
REMARK  153  A    between atoms: _384  and  _385
REMARK  154  A    between atoms: _385  and  _386
REMARK  155  A    between atoms: _389  and  _391
REMARK  156  A    between atoms: _391  and  _392
REMARK  157  A    between atoms: _395  and  _397
REMARK  158  A    between atoms: _397  and  _398
REMARK  159  A    between atoms: _397  and  _400
REMARK  160  A    between atoms: _400  and  _401
REMARK  161  A    between atoms: _406  and  _408
REMARK  162  A    between atoms: _408  and  _409
REMARK  163  A    between atoms: _411  and  _413
REMARK  164  A    between atoms: _413  and  _414
REMARK  165  A    between atoms: _416  and  _418
REMARK  166  A    between atoms: _418  and  _419
REMARK  167  A    between atoms: _418  and  _421
REMARK  168  A    between atoms: _421  and  _422
REMARK  169  A    between atoms: _427  and  _428
REMARK  170  A    between atoms: _430  and  _432
REMARK  171  A    between atoms: _432  and  _433
REMARK  172  A    between atoms: _432  and  _435
REMARK  173  A    between atoms: _435  and  _436
REMARK  174  A    between atoms: _439  and  _441
REMARK  175  A    between atoms: _441  and  _442
REMARK  176  A    between atoms: _441  and  _444
REMARK  177  A    between atoms: _444  and  _445
REMARK  178  A    between atoms: _451  and  _453
REMARK  179  A    between atoms: _453  and  _454
REMARK  180  A    between atoms: _453  and  _456
REMARK  181  A    between atoms: _458  and  _460
REMARK  182  A    between atoms: _460  and  _461
REMARK  183  A    between atoms: _463  and  _465
REMARK  184  A    between atoms: _465  and  _466
REMARK  185  A    between atoms: _465  and  _468
REMARK  186  A    between atoms: _468  and  _469
REMARK  187  A    between atoms: _475  and  _477
REMARK  188  A    between atoms: _477  and  _478
REMARK  189  A    between atoms: _477  and  _480
REMARK  190  A    between atoms: _480  and  _481
REMARK  191  A    between atoms: _481  and  _482
REMARK  192  A    between atoms: _487  and  _489
REMARK  193  A    between atoms: _489  and  _490
REMARK  194  A    between atoms: _492  and  _494
REMARK  195  A    between atoms: _494  and  _495
REMARK  196  A    between atoms: _494  and  _497
REMARK  197  A    between atoms: _497  and  _498
REMARK  198  A    between atoms: _498  and  _499
REMARK  199  A    between atoms: _499  and  _500
REMARK  200  A    between atoms: _509  and  _511
REMARK  201  A    between atoms: _511  and  _512
REMARK  202  A    between atoms: _511  and  _514
REMARK  203  A    between atoms: _516  and  _518
REMARK  204  A    between atoms: _518  and  _519
REMARK  205  A    between atoms: _518  and  _521
REMARK  206  A    between atoms: _521  and  _522
REMARK  207  A    between atoms: _527  and  _529
REMARK  208  A    between atoms: _529  and  _530
REMARK  209  A    between atoms: _529  and  _532
REMARK  210  A    between atoms: _532  and  _533
REMARK  211  A    between atoms: _533  and  _534
REMARK  212  A    between atoms: _534  and  _535
REMARK  213  A    between atoms: _535  and  _536
REMARK  214  A    between atoms: _540  and  _542
REMARK  215  A    between atoms: _542  and  _543
REMARK  216  A    between atoms: _542  and  _545
REMARK  217  A    between atoms: _545  and  _546
REMARK  218  A    between atoms: _549  and  _551
REMARK  219  A    between atoms: _551  and  _552
REMARK  220  A    between atoms: _551  and  _554
REMARK  221  A    between atoms: _557  and  _559
REMARK  222  A    between atoms: _559  and  _560
REMARK  223  A    between atoms: _559  and  _562
REMARK  224  A    between atoms: _562  and  _563
REMARK  225  A    between atoms: _563  and  _565
REMARK  226  A    between atoms: _565  and  ZN_690
REMARK  227  A    between atoms: _566  and  _568
REMARK  228  A    between atoms: _568  and  _569
REMARK  229  A    between atoms: _568  and  _571
REMARK  230  A    between atoms: _571  and  _572
REMARK  231  A    between atoms: _572  and  ZN_690
REMARK  232  A    between atoms: _573  and  _575
REMARK  233  A    between atoms: _575  and  _576
REMARK  234  A    between atoms: _575  and  _578
REMARK  235  A    between atoms: _578  and  _579
REMARK  236  A    between atoms: _584  and  _585
REMARK  237  A    between atoms: _587  and  _589
REMARK  238  A    between atoms: _589  and  _590
REMARK  239  A    between atoms: _589  and  _592
REMARK  240  A    between atoms: _592  and  _593
REMARK  241  A    between atoms: _599  and  _601
REMARK  242  A    between atoms: _601  and  _602
REMARK  243  A    between atoms: _601  and  _604
REMARK  244  A    between atoms: _604  and  _605
REMARK  245  A    between atoms: _615  and  _617
REMARK  246  A    between atoms: _617  and  _618
REMARK  247  A    between atoms: _617  and  _620
REMARK  248  A    between atoms: _620  and  _621
REMARK  249  A    between atoms: _621  and  _622
REMARK  250  A    between atoms: _627  and  _629
REMARK  251  A    between atoms: _629  and  _630
REMARK  252  A    between atoms: _629  and  _632
REMARK  253  A    between atoms: _632  and  _633
REMARK  254  A    between atoms: _636  and  _638
REMARK  255  A    between atoms: _638  and  _639
REMARK  256  A    between atoms: _638  and  _641
REMARK  257  A    between atoms: _641  and  _642
REMARK  258  A    between atoms: _642  and  _643
REMARK  259  A    between atoms: _643  and  _644
REMARK  260  A    between atoms: _644  and  _645
REMARK  261  A    between atoms: _649  and  _651
REMARK  262  A    between atoms: _651  and  _652
REMARK  263  A    between atoms: _651  and  _654
REMARK  264  A    between atoms: _654  and  _655
REMARK  265  A    between atoms: _655  and  _656
REMARK  266  A    between atoms: _656  and  _657
REMARK  267  A    between atoms: _657  and  _658
REMARK  268  A    between atoms: _662  and  _664
REMARK  269  A    between atoms: _664  and  _665
REMARK  270  A    between atoms: _664  and  _667
REMARK  271  A    between atoms: _667  and  _668
REMARK  272  A    between atoms: _673  and  _674
REMARK  273  A    between atoms: _676  and  _678
REMARK  274  A    between atoms: _678  and  _679
REMARK  275  A    between atoms: _678  and  _681
REMARK  276  A    between atoms: _681  and  _682
REMARK  277  A    between atoms: _687  and  _688
REMARK                            x       y       z     vdW  Elec       q    Type
REMARK                         _______ _______ _______ _____ _____    ______ ____
ROOT
ATOM      1  O   HOH     1     204.826 119.741  35.060  0.00  0.00    +0.000 OA
ENDROOT
TORSDOF 0
REMARK  Name = ../refined-set-2016/1o1s/1o1s_pocket.pdb
REMARK  277 active torsions:
REMARK  status: ('A' for Active; 'I' for Inactive)
REMARK    1  A    between atoms: _1  and  _3
REMARK    2  A    between atoms: _3  and  _4
REMARK    3  A    between atoms: _7  and  _9
REMARK    4  A    between atoms: _9  and  _10
REMARK    5  A    between atoms: _9  and  _12
REMARK    6  A    between atoms: _12  and  _13
REMARK    7  A    between atoms: _18  and  _19
REMARK    8  A    between atoms: _21  and  _23
REMARK    9  A    between atoms: _23  and  _24
REMARK   10  A    between atoms: _23  and  _26
REMARK   11  A    between atoms: _26  and  _27
REMARK   12  A    between atoms: _27  and  _28
REMARK   13  A    between atoms: _28  and  _29
REMARK   14  A    between atoms: _29  and  _30
REMARK   15  A    between atoms: _34  and  _36
REMARK   16  A    between atoms: _36  and  _37
REMARK   17  A    between atoms: _36  and  _39
REMARK   18  A    between atoms: _39  and  _40
REMARK   19  A    between atoms: _45  and  _47
REMARK   20  A    between atoms: _47  and  _48
REMARK   21  A    between atoms: _47  and  _50
REMARK   22  A    between atoms: _50  and  _51
REMARK   23  A    between atoms: _56  and  _57
REMARK   24  A    between atoms: _59  and  _61
REMARK   25  A    between atoms: _61  and  _62
REMARK   26  A    between atoms: _61  and  _64
REMARK   27  A    between atoms: _64  and  _65
REMARK   28  A    between atoms: _65  and  _66
REMARK   29  A    between atoms: _71  and  _73
REMARK   30  A    between atoms: _73  and  _74
REMARK   31  A    between atoms: _73  and  _76
REMARK   32  A    between atoms: _76  and  _77
REMARK   33  A    between atoms: _80  and  _82
REMARK   34  A    between atoms: _82  and  _83
REMARK   35  A    between atoms: _82  and  _85
REMARK   36  A    between atoms: _85  and  _86
REMARK   37  A    between atoms: _86  and  _87
REMARK   38  A    between atoms: _87  and  _88
REMARK   39  A    between atoms: _88  and  _89
REMARK   40  A    between atoms: _93  and  _95
REMARK   41  A    between atoms: _95  and  _96
REMARK   42  A    between atoms: _95  and  _98
REMARK   43  A    between atoms: _98  and  _99
REMARK   44  A    between atoms: _104  and  _106
REMARK   45  A    between atoms: _106  and  _107
REMARK   46  A    between atoms: _106  and  _109
REMARK   47  A    between atoms: _109  and  _110
REMARK   48  A    between atoms: _115  and  _116
REMARK   49  A    between atoms: _118  and  _120
REMARK   50  A    between atoms: _120  and  _121
REMARK   51  A    between atoms: _120  and  _123
REMARK   52  A    between atoms: _123  and  _124
REMARK   53  A    between atoms: _129  and  _131
REMARK   54  A    between atoms: _131  and  _132
REMARK   55  A    between atoms: _135  and  _137
REMARK   56  A    between atoms: _137  and  _138
REMARK   57  A    between atoms: _137  and  _140
REMARK   58  A    between atoms: _140  and  _141
REMARK   59  A    between atoms: _141  and  _142
REMARK   60  A    between atoms: _147  and  _149
REMARK   61  A    between atoms: _149  and  _150
REMARK   62  A    between atoms: _149  and  _152
REMARK   63  A    between atoms: _152  and  _153
REMARK   64  A    between atoms: _155  and  _157
REMARK   65  A    between atoms: _157  and  _158
REMARK   66  A    between atoms: _157  and  _160
REMARK   67  A    between atoms: _160  and  _161
REMARK   68  A    between atoms: _164  and  _166
REMARK   69  A    between atoms: _166  and  _167
REMARK   70  A    between atoms: _170  and  _172
REMARK   71  A    between atoms: _172  and  _173
REMARK   72  A    between atoms: _172  and  _175
REMARK   73  A    between atoms: _175  and  _176
REMARK   74  A    between atoms: _178  and  _180
REMARK   75  A    between atoms: _180  and  _181
REMARK   76  A    between atoms: _180  and  _183
REMARK   77  A    between atoms: _183  and  _184
REMARK   78  A    between atoms: _194  and  _196
REMARK   79  A    between atoms: _196  and  _197
REMARK   80  A    between atoms: _196  and  _199
REMARK   81  A    between atoms: _199  and  _200
REMARK   82  A    between atoms: _210  and  _212
REMARK   83  A    between atoms: _212  and  _213
REMARK   84  A    between atoms: _212  and  _215
REMARK   85  A    between atoms: _215  and  _216
REMARK   86  A    between atoms: _221  and  _223
REMARK   87  A    between atoms: _223  and  _224
REMARK   88  A    between atoms: _223  and  _226
REMARK   89  A    between atoms: _226  and  _227
REMARK   90  A    between atoms: _230  and  _232
REMARK   91  A    between atoms: _232  and  _233
REMARK   92  A    between atoms: _237  and  _238
REMARK   93  A    between atoms: _243  and  _245
REMARK   94  A    between atoms: _245  and  _246
REMARK   95  A    between atoms: _245  and  _248
REMARK   96  A    between atoms: _248  and  _249
REMARK   97  A    between atoms: _252  and  _254
REMARK   98  A    between atoms: _254  and  _255
REMARK   99  A    between atoms: _254  and  _257
REMARK  100  A    between atoms: _257  and  _258
REMARK  101  A    between atoms: _263  and  _264
REMARK  102  A    between atoms: _266  and  _268
REMARK  103  A    between atoms: _268  and  _269
REMARK  104  A    between atoms: _272  and  _274
REMARK  105  A    between atoms: _274  and  _275
REMARK  106  A    between atoms: _274  and  _277
REMARK  107  A    between atoms: _277  and  _278
REMARK  108  A    between atoms: _278  and  _279
REMARK  109  A    between atoms: _281  and  _283
REMARK  110  A    between atoms: _283  and  _284
REMARK  111  A    between atoms: _283  and  _286
REMARK  112  A    between atoms: _286  and  _287
REMARK  113  A    between atoms: _292  and  _294
REMARK  114  A    between atoms: _294  and  _295
REMARK  115  A    between atoms: _294  and  _297
REMARK  116  A    between atoms: _297  and  _298
REMARK  117  A    between atoms: _298  and  _299
REMARK  118  A    between atoms: _302  and  _304
REMARK  119  A    between atoms: _304  and  _305
REMARK  120  A    between atoms: _304  and  _307
REMARK  121  A    between atoms: _307  and  _308
REMARK  122  A    between atoms: _311  and  _313
REMARK  123  A    between atoms: _313  and  _314
REMARK  124  A    between atoms: _313  and  _316
REMARK  125  A    between atoms: _319  and  _321
REMARK  126  A    between atoms: _321  and  _322
REMARK  127  A    between atoms: _321  and  _324
REMARK  128  A    between atoms: _324  and  _325
REMARK  129  A    between atoms: _325  and  _326
REMARK  130  A    between atoms: _326  and  _327
REMARK  131  A    between atoms: _336  and  _338
REMARK  132  A    between atoms: _338  and  _339
REMARK  133  A    between atoms: _338  and  _341
REMARK  134  A    between atoms: _341  and  _342
REMARK  135  A    between atoms: _344  and  _346
REMARK  136  A    between atoms: _346  and  _347
REMARK  137  A    between atoms: _346  and  _349
REMARK  138  A    between atoms: _349  and  _350
REMARK  139  A    between atoms: _355  and  _356
REMARK  140  A    between atoms: _358  and  _360
REMARK  141  A    between atoms: _360  and  _361
REMARK  142  A    between atoms: _360  and  _363
REMARK  143  A    between atoms: _365  and  _367
REMARK  144  A    between atoms: _367  and  _368
REMARK  145  A    between atoms: _370  and  _372
REMARK  146  A    between atoms: _372  and  _373
REMARK  147  A    between atoms: _372  and  _375
REMARK  148  A    between atoms: _375  and  _376
REMARK  149  A    between atoms: _376  and  _377
REMARK  150  A    between atoms: _379  and  _381
REMARK  151  A    between atoms: _381  and  _382
REMARK  152  A    between atoms: _381  and  _384
REMARK  153  A    between atoms: _384  and  _385
REMARK  154  A    between atoms: _385  and  _386
REMARK  155  A    between atoms: _389  and  _391
REMARK  156  A    between atoms: _391  and  _392
REMARK  157  A    between atoms: _395  and  _397
REMARK  158  A    between atoms: _397  and  _398
REMARK  159  A    between atoms: _397  and  _400
REMARK  160  A    between atoms: _400  and  _401
REMARK  161  A    between atoms: _406  and  _408
REMARK  162  A    between atoms: _408  and  _409
REMARK  163  A    between atoms: _411  and  _413
REMARK  164  A    between atoms: _413  and  _414
REMARK  165  A    between atoms: _416  and  _418
REMARK  166  A    between atoms: _418  and  _419
REMARK  167  A    between atoms: _418  and  _421
REMARK  168  A    between atoms: _421  and  _422
REMARK  169  A    between atoms: _427  and  _428
REMARK  170  A    between atoms: _430  and  _432
REMARK  171  A    between atoms: _432  and  _433
REMARK  172  A    between atoms: _432  and  _435
REMARK  173  A    between atoms: _435  and  _436
REMARK  174  A    between atoms: _439  and  _441
REMARK  175  A    between atoms: _441  and  _442
REMARK  176  A    between atoms: _441  and  _444
REMARK  177  A    between atoms: _444  and  _445
REMARK  178  A    between atoms: _451  and  _453
REMARK  179  A    between atoms: _453  and  _454
REMARK  180  A    between atoms: _453  and  _456
REMARK  181  A    between atoms: _458  and  _460
REMARK  182  A    between atoms: _460  and  _461
REMARK  183  A    between atoms: _463  and  _465
REMARK  184  A    between atoms: _465  and  _466
REMARK  185  A    between atoms: _465  and  _468
REMARK  186  A    between atoms: _468  and  _469
REMARK  187  A    between atoms: _475  and  _477
REMARK  188  A    between atoms: _477  and  _478
REMARK  189  A    between atoms: _477  and  _480
REMARK  190  A    between atoms: _480  and  _481
REMARK  191  A    between atoms: _481  and  _482
REMARK  192  A    between atoms: _487  and  _489
REMARK  193  A    between atoms: _489  and  _490
REMARK  194  A    between atoms: _492  and  _494
REMARK  195  A    between atoms: _494  and  _495
REMARK  196  A    between atoms: _494  and  _497
REMARK  197  A    between atoms: _497  and  _498
REMARK  198  A    between atoms: _498  and  _499
REMARK  199  A    between atoms: _499  and  _500
REMARK  200  A    between atoms: _509  and  _511
REMARK  201  A    between atoms: _511  and  _512
REMARK  202  A    between atoms: _511  and  _514
REMARK  203  A    between atoms: _516  and  _518
REMARK  204  A    between atoms: _518  and  _519
REMARK  205  A    between atoms: _518  and  _521
REMARK  206  A    between atoms: _521  and  _522
REMARK  207  A    between atoms: _527  and  _529
REMARK  208  A    between atoms: _529  and  _530
REMARK  209  A    between atoms: _529  and  _532
REMARK  210  A    between atoms: _532  and  _533
REMARK  211  A    between atoms: _533  and  _534
REMARK  212  A    between atoms: _534  and  _535
REMARK  213  A    between atoms: _535  and  _536
REMARK  214  A    between atoms: _540  and  _542
REMARK  215  A    between atoms: _542  and  _543
REMARK  216  A    between atoms: _542  and  _545
REMARK  217  A    between atoms: _545  and  _546
REMARK  218  A    between atoms: _549  and  _551
REMARK  219  A    between atoms: _551  and  _552
REMARK  220  A    between atoms: _551  and  _554
REMARK  221  A    between atoms: _557  and  _559
REMARK  222  A    between atoms: _559  and  _560
REMARK  223  A    between atoms: _559  and  _562
REMARK  224  A    between atoms: _562  and  _563
REMARK  225  A    between atoms: _563  and  _565
REMARK  226  A    between atoms: _565  and  ZN_690
REMARK  227  A    between atoms: _566  and  _568
REMARK  228  A    between atoms: _568  and  _569
REMARK  229  A    between atoms: _568  and  _571
REMARK  230  A    between atoms: _571  and  _572
REMARK  231  A    between atoms: _572  and  ZN_690
REMARK  232  A    between atoms: _573  and  _575
REMARK  233  A    between atoms: _575  and  _576
REMARK  234  A    between atoms: _575  and  _578
REMARK  235  A    between atoms: _578  and  _579
REMARK  236  A    between atoms: _584  and  _585
REMARK  237  A    between atoms: _587  and  _589
REMARK  238  A    between atoms: _589  and  _590
REMARK  239  A    between atoms: _589  and  _592
REMARK  240  A    between atoms: _592  and  _593
REMARK  241  A    between atoms: _599  and  _601
REMARK  242  A    between atoms: _601  and  _602
REMARK  243  A    between atoms: _601  and  _604
REMARK  244  A    between atoms: _604  and  _605
REMARK  245  A    between atoms: _615  and  _617
REMARK  246  A    between atoms: _617  and  _618
REMARK  247  A    between atoms: _617  and  _620
REMARK  248  A    between atoms: _620  and  _621
REMARK  249  A    between atoms: _621  and  _622
REMARK  250  A    between atoms: _627  and  _629
REMARK  251  A    between atoms: _629  and  _630
REMARK  252  A    between atoms: _629  and  _632
REMARK  253  A    between atoms: _632  and  _633
REMARK  254  A    between atoms: _636  and  _638
REMARK  255  A    between atoms: _638  and  _639
REMARK  256  A    between atoms: _638  and  _641
REMARK  257  A    between atoms: _641  and  _642
REMARK  258  A    between atoms: _642  and  _643
REMARK  259  A    between atoms: _643  and  _644
REMARK  260  A    between atoms: _644  and  _645
REMARK  261  A    between atoms: _649  and  _651
REMARK  262  A    between atoms: _651  and  _652
REMARK  263  A    between atoms: _651  and  _654
REMARK  264  A    between atoms: _654  and  _655
REMARK  265  A    between atoms: _655  and  _656
REMARK  266  A    between atoms: _656  and  _657
REMARK  267  A    between atoms: _657  and  _658
REMARK  268  A    between atoms: _662  and  _664
REMARK  269  A    between atoms: _664  and  _665
REMARK  270  A    between atoms: _664  and  _667
REMARK  271  A    between atoms: _667  and  _668
REMARK  272  A    between atoms: _673  and  _674
REMARK  273  A    between atoms: _676  and  _678
REMARK  274  A    between atoms: _678  and  _679
REMARK  275  A    between atoms: _678  and  _681
REMARK  276  A    between atoms: _681  and  _682
REMARK  277  A    between atoms: _687  and  _688
REMARK                            x       y       z     vdW  Elec       q    Type
REMARK                         _______ _______ _______ _____ _____    ______ ____
ROOT
ATOM      1  O   HOH     1     180.288 120.397  36.597  0.00  0.00    +0.000 OA
ENDROOT
TORSDOF 0
REMARK  Name = ../refined-set-2016/1o1s/1o1s_pocket.pdb
REMARK  277 active torsions:
REMARK  status: ('A' for Active; 'I' for Inactive)
REMARK    1  A    between atoms: _1  and  _3
REMARK    2  A    between atoms: _3  and  _4
REMARK    3  A    between atoms: _7  and  _9
REMARK    4  A    between atoms: _9  and  _10
REMARK    5  A    between atoms: _9  and  _12
REMARK    6  A    between atoms: _12  and  _13
REMARK    7  A    between atoms: _18  and  _19
REMARK    8  A    between atoms: _21  and  _23
REMARK    9  A    between atoms: _23  and  _24
REMARK   10  A    between atoms: _23  and  _26
REMARK   11  A    between atoms: _26  and  _27
REMARK   12  A    between atoms: _27  and  _28
REMARK   13  A    between atoms: _28  and  _29
REMARK   14  A    between atoms: _29  and  _30
REMARK   15  A    between atoms: _34  and  _36
REMARK   16  A    between atoms: _36  and  _37
REMARK   17  A    between atoms: _36  and  _39
REMARK   18  A    between atoms: _39  and  _40
REMARK   19  A    between atoms: _45  and  _47
REMARK   20  A    between atoms: _47  and  _48
REMARK   21  A    between atoms: _47  and  _50
REMARK   22  A    between atoms: _50  and  _51
REMARK   23  A    between atoms: _56  and  _57
REMARK   24  A    between atoms: _59  and  _61
REMARK   25  A    between atoms: _61  and  _62
REMARK   26  A    between atoms: _61  and  _64
REMARK   27  A    between atoms: _64  and  _65
REMARK   28  A    between atoms: _65  and  _66
REMARK   29  A    between atoms: _71  and  _73
REMARK   30  A    between atoms: _73  and  _74
REMARK   31  A    between atoms: _73  and  _76
REMARK   32  A    between atoms: _76  and  _77
REMARK   33  A    between atoms: _80  and  _82
REMARK   34  A    between atoms: _82  and  _83
REMARK   35  A    between atoms: _82  and  _85
REMARK   36  A    between atoms: _85  and  _86
REMARK   37  A    between atoms: _86  and  _87
REMARK   38  A    between atoms: _87  and  _88
REMARK   39  A    between atoms: _88  and  _89
REMARK   40  A    between atoms: _93  and  _95
REMARK   41  A    between atoms: _95  and  _96
REMARK   42  A    between atoms: _95  and  _98
REMARK   43  A    between atoms: _98  and  _99
REMARK   44  A    between atoms: _104  and  _106
REMARK   45  A    between atoms: _106  and  _107
REMARK   46  A    between atoms: _106  and  _109
REMARK   47  A    between atoms: _109  and  _110
REMARK   48  A    between atoms: _115  and  _116
REMARK   49  A    between atoms: _118  and  _120
REMARK   50  A    between atoms: _120  and  _121
REMARK   51  A    between atoms: _120  and  _123
REMARK   52  A    between atoms: _123  and  _124
REMARK   53  A    between atoms: _129  and  _131
REMARK   54  A    between atoms: _131  and  _132
REMARK   55  A    between atoms: _135  and  _137
REMARK   56  A    between atoms: _137  and  _138
REMARK   57  A    between atoms: _137  and  _140
REMARK   58  A    between atoms: _140  and  _141
REMARK   59  A    between atoms: _141  and  _142
REMARK   60  A    between atoms: _147  and  _149
REMARK   61  A    between atoms: _149  and  _150
REMARK   62  A    between atoms: _149  and  _152
REMARK   63  A    between atoms: _152  and  _153
REMARK   64  A    between atoms: _155  and  _157
REMARK   65  A    between atoms: _157  and  _158
REMARK   66  A    between atoms: _157  and  _160
REMARK   67  A    between atoms: _160  and  _161
REMARK   68  A    between atoms: _164  and  _166
REMARK   69  A    between atoms: _166  and  _167
REMARK   70  A    between atoms: _170  and  _172
REMARK   71  A    between atoms: _172  and  _173
REMARK   72  A    between atoms: _172  and  _175
REMARK   73  A    between atoms: _175  and  _176
REMARK   74  A    between atoms: _178  and  _180
REMARK   75  A    between atoms: _180  and  _181
REMARK   76  A    between atoms: _180  and  _183
REMARK   77  A    between atoms: _183  and  _184
REMARK   78  A    between atoms: _194  and  _196
REMARK   79  A    between atoms: _196  and  _197
REMARK   80  A    between atoms: _196  and  _199
REMARK   81  A    between atoms: _199  and  _200
REMARK   82  A    between atoms: _210  and  _212
REMARK   83  A    between atoms: _212  and  _213
REMARK   84  A    between atoms: _212  and  _215
REMARK   85  A    between atoms: _215  and  _216
REMARK   86  A    between atoms: _221  and  _223
REMARK   87  A    between atoms: _223  and  _224
REMARK   88  A    between atoms: _223  and  _226
REMARK   89  A    between atoms: _226  and  _227
REMARK   90  A    between atoms: _230  and  _232
REMARK   91  A    between atoms: _232  and  _233
REMARK   92  A    between atoms: _237  and  _238
REMARK   93  A    between atoms: _243  and  _245
REMARK   94  A    between atoms: _245  and  _246
REMARK   95  A    between atoms: _245  and  _248
REMARK   96  A    between atoms: _248  and  _249
REMARK   97  A    between atoms: _252  and  _254
REMARK   98  A    between atoms: _254  and  _255
REMARK   99  A    between atoms: _254  and  _257
REMARK  100  A    between atoms: _257  and  _258
REMARK  101  A    between atoms: _263  and  _264
REMARK  102  A    between atoms: _266  and  _268
REMARK  103  A    between atoms: _268  and  _269
REMARK  104  A    between atoms: _272  and  _274
REMARK  105  A    between atoms: _274  and  _275
REMARK  106  A    between atoms: _274  and  _277
REMARK  107  A    between atoms: _277  and  _278
REMARK  108  A    between atoms: _278  and  _279
REMARK  109  A    between atoms: _281  and  _283
REMARK  110  A    between atoms: _283  and  _284
REMARK  111  A    between atoms: _283  and  _286
REMARK  112  A    between atoms: _286  and  _287
REMARK  113  A    between atoms: _292  and  _294
REMARK  114  A    between atoms: _294  and  _295
REMARK  115  A    between atoms: _294  and  _297
REMARK  116  A    between atoms: _297  and  _298
REMARK  117  A    between atoms: _298  and  _299
REMARK  118  A    between atoms: _302  and  _304
REMARK  119  A    between atoms: _304  and  _305
REMARK  120  A    between atoms: _304  and  _307
REMARK  121  A    between atoms: _307  and  _308
REMARK  122  A    between atoms: _311  and  _313
REMARK  123  A    between atoms: _313  and  _314
REMARK  124  A    between atoms: _313  and  _316
REMARK  125  A    between atoms: _319  and  _321
REMARK  126  A    between atoms: _321  and  _322
REMARK  127  A    between atoms: _321  and  _324
REMARK  128  A    between atoms: _324  and  _325
REMARK  129  A    between atoms: _325  and  _326
REMARK  130  A    between atoms: _326  and  _327
REMARK  131  A    between atoms: _336  and  _338
REMARK  132  A    between atoms: _338  and  _339
REMARK  133  A    between atoms: _338  and  _341
REMARK  134  A    between atoms: _341  and  _342
REMARK  135  A    between atoms: _344  and  _346
REMARK  136  A    between atoms: _346  and  _347
REMARK  137  A    between atoms: _346  and  _349
REMARK  138  A    between atoms: _349  and  _350
REMARK  139  A    between atoms: _355  and  _356
REMARK  140  A    between atoms: _358  and  _360
REMARK  141  A    between atoms: _360  and  _361
REMARK  142  A    between atoms: _360  and  _363
REMARK  143  A    between atoms: _365  and  _367
REMARK  144  A    between atoms: _367  and  _368
REMARK  145  A    between atoms: _370  and  _372
REMARK  146  A    between atoms: _372  and  _373
REMARK  147  A    between atoms: _372  and  _375
REMARK  148  A    between atoms: _375  and  _376
REMARK  149  A    between atoms: _376  and  _377
REMARK  150  A    between atoms: _379  and  _381
REMARK  151  A    between atoms: _381  and  _382
REMARK  152  A    between atoms: _381  and  _384
REMARK  153  A    between atoms: _384  and  _385
REMARK  154  A    between atoms: _385  and  _386
REMARK  155  A    between atoms: _389  and  _391
REMARK  156  A    between atoms: _391  and  _392
REMARK  157  A    between atoms: _395  and  _397
REMARK  158  A    between atoms: _397  and  _398
REMARK  159  A    between atoms: _397  and  _400
REMARK  160  A    between atoms: _400  and  _401
REMARK  161  A    between atoms: _406  and  _408
REMARK  162  A    between atoms: _408  and  _409
REMARK  163  A    between atoms: _411  and  _413
REMARK  164  A    between atoms: _413  and  _414
REMARK  165  A    between atoms: _416  and  _418
REMARK  166  A    between atoms: _418  and  _419
REMARK  167  A    between atoms: _418  and  _421
REMARK  168  A    between atoms: _421  and  _422
REMARK  169  A    between atoms: _427  and  _428
REMARK  170  A    between atoms: _430  and  _432
REMARK  171  A    between atoms: _432  and  _433
REMARK  172  A    between atoms: _432  and  _435
REMARK  173  A    between atoms: _435  and  _436
REMARK  174  A    between atoms: _439  and  _441
REMARK  175  A    between atoms: _441  and  _442
REMARK  176  A    between atoms: _441  and  _444
REMARK  177  A    between atoms: _444  and  _445
REMARK  178  A    between atoms: _451  and  _453
REMARK  179  A    between atoms: _453  and  _454
REMARK  180  A    between atoms: _453  and  _456
REMARK  181  A    between atoms: _458  and  _460
REMARK  182  A    between atoms: _460  and  _461
REMARK  183  A    between atoms: _463  and  _465
REMARK  184  A    between atoms: _465  and  _466
REMARK  185  A    between atoms: _465  and  _468
REMARK  186  A    between atoms: _468  and  _469
REMARK  187  A    between atoms: _475  and  _477
REMARK  188  A    between atoms: _477  and  _478
REMARK  189  A    between atoms: _477  and  _480
REMARK  190  A    between atoms: _480  and  _481
REMARK  191  A    between atoms: _481  and  _482
REMARK  192  A    between atoms: _487  and  _489
REMARK  193  A    between atoms: _489  and  _490
REMARK  194  A    between atoms: _492  and  _494
REMARK  195  A    between atoms: _494  and  _495
REMARK  196  A    between atoms: _494  and  _497
REMARK  197  A    between atoms: _497  and  _498
REMARK  198  A    between atoms: _498  and  _499
REMARK  199  A    between atoms: _499  and  _500
REMARK  200  A    between atoms: _509  and  _511
REMARK  201  A    between atoms: _511  and  _512
REMARK  202  A    between atoms: _511  and  _514
REMARK  203  A    between atoms: _516  and  _518
REMARK  204  A    between atoms: _518  and  _519
REMARK  205  A    between atoms: _518  and  _521
REMARK  206  A    between atoms: _521  and  _522
REMARK  207  A    between atoms: _527  and  _529
REMARK  208  A    between atoms: _529  and  _530
REMARK  209  A    between atoms: _529  and  _532
REMARK  210  A    between atoms: _532  and  _533
REMARK  211  A    between atoms: _533  and  _534
REMARK  212  A    between atoms: _534  and  _535
REMARK  213  A    between atoms: _535  and  _536
REMARK  214  A    between atoms: _540  and  _542
REMARK  215  A    between atoms: _542  and  _543
REMARK  216  A    between atoms: _542  and  _545
REMARK  217  A    between atoms: _545  and  _546
REMARK  218  A    between atoms: _549  and  _551
REMARK  219  A    between atoms: _551  and  _552
REMARK  220  A    between atoms: _551  and  _554
REMARK  221  A    between atoms: _557  and  _559
REMARK  222  A    between atoms: _559  and  _560
REMARK  223  A    between atoms: _559  and  _562
REMARK  224  A    between atoms: _562  and  _563
REMARK  225  A    between atoms: _563  and  _565
REMARK  226  A    between atoms: _565  and  ZN_690
REMARK  227  A    between atoms: _566  and  _568
REMARK  228  A    between atoms: _568  and  _569
REMARK  229  A    between atoms: _568  and  _571
REMARK  230  A    between atoms: _571  and  _572
REMARK  231  A    between atoms: _572  and  ZN_690
REMARK  232  A    between atoms: _573  and  _575
REMARK  233  A    between atoms: _575  and  _576
REMARK  234  A    between atoms: _575  and  _578
REMARK  235  A    between atoms: _578  and  _579
REMARK  236  A    between atoms: _584  and  _585
REMARK  237  A    between atoms: _587  and  _589
REMARK  238  A    between atoms: _589  and  _590
REMARK  239  A    between atoms: _589  and  _592
REMARK  240  A    between atoms: _592  and  _593
REMARK  241  A    between atoms: _599  and  _601
REMARK  242  A    between atoms: _601  and  _602
REMARK  243  A    between atoms: _601  and  _604
REMARK  244  A    between atoms: _604  and  _605
REMARK  245  A    between atoms: _615  and  _617
REMARK  246  A    between atoms: _617  and  _618
REMARK  247  A    between atoms: _617  and  _620
REMARK  248  A    between atoms: _620  and  _621
REMARK  249  A    between atoms: _621  and  _622
REMARK  250  A    between atoms: _627  and  _629
REMARK  251  A    between atoms: _629  and  _630
REMARK  252  A    between atoms: _629  and  _632
REMARK  253  A    between atoms: _632  and  _633
REMARK  254  A    between atoms: _636  and  _638
REMARK  255  A    between atoms: _638  and  _639
REMARK  256  A    between atoms: _638  and  _641
REMARK  257  A    between atoms: _641  and  _642
REMARK  258  A    between atoms: _642  and  _643
REMARK  259  A    between atoms: _643  and  _644
REMARK  260  A    between atoms: _644  and  _645
REMARK  261  A    between atoms: _649  and  _651
REMARK  262  A    between atoms: _651  and  _652
REMARK  263  A    between atoms: _651  and  _654
REMARK  264  A    between atoms: _654  and  _655
REMARK  265  A    between atoms: _655  and  _656
REMARK  266  A    between atoms: _656  and  _657
REMARK  267  A    between atoms: _657  and  _658
REMARK  268  A    between atoms: _662  and  _664
REMARK  269  A    between atoms: _664  and  _665
REMARK  270  A    between atoms: _664  and  _667
REMARK  271  A    between atoms: _667  and  _668
REMARK  272  A    between atoms: _673  and  _674
REMARK  273  A    between atoms: _676  and  _678
REMARK  274  A    between atoms: _678  and  _679
REMARK  275  A    between atoms: _678  and  _681
REMARK  276  A    between atoms: _681  and  _682
REMARK  277  A    between atoms: _687  and  _688
REMARK                            x       y       z     vdW  Elec       q    Type
REMARK                         _______ _______ _______ _____ _____    ______ ____
ROOT
ATOM      1  O   HOH     1     197.789 122.125  38.343  0.00  0.00    +0.000 OA
ENDROOT
TORSDOF 0
REMARK  Name = ../refined-set-2016/1o1s/1o1s_pocket.pdb
REMARK  277 active torsions:
REMARK  status: ('A' for Active; 'I' for Inactive)
REMARK    1  A    between atoms: _1  and  _3
REMARK    2  A    between atoms: _3  and  _4
REMARK    3  A    between atoms: _7  and  _9
REMARK    4  A    between atoms: _9  and  _10
REMARK    5  A    between atoms: _9  and  _12
REMARK    6  A    between atoms: _12  and  _13
REMARK    7  A    between atoms: _18  and  _19
REMARK    8  A    between atoms: _21  and  _23
REMARK    9  A    between atoms: _23  and  _24
REMARK   10  A    between atoms: _23  and  _26
REMARK   11  A    between atoms: _26  and  _27
REMARK   12  A    between atoms: _27  and  _28
REMARK   13  A    between atoms: _28  and  _29
REMARK   14  A    between atoms: _29  and  _30
REMARK   15  A    between atoms: _34  and  _36
REMARK   16  A    between atoms: _36  and  _37
REMARK   17  A    between atoms: _36  and  _39
REMARK   18  A    between atoms: _39  and  _40
REMARK   19  A    between atoms: _45  and  _47
REMARK   20  A    between atoms: _47  and  _48
REMARK   21  A    between atoms: _47  and  _50
REMARK   22  A    between atoms: _50  and  _51
REMARK   23  A    between atoms: _56  and  _57
REMARK   24  A    between atoms: _59  and  _61
REMARK   25  A    between atoms: _61  and  _62
REMARK   26  A    between atoms: _61  and  _64
REMARK   27  A    between atoms: _64  and  _65
REMARK   28  A    between atoms: _65  and  _66
REMARK   29  A    between atoms: _71  and  _73
REMARK   30  A    between atoms: _73  and  _74
REMARK   31  A    between atoms: _73  and  _76
REMARK   32  A    between atoms: _76  and  _77
REMARK   33  A    between atoms: _80  and  _82
REMARK   34  A    between atoms: _82  and  _83
REMARK   35  A    between atoms: _82  and  _85
REMARK   36  A    between atoms: _85  and  _86
REMARK   37  A    between atoms: _86  and  _87
REMARK   38  A    between atoms: _87  and  _88
REMARK   39  A    between atoms: _88  and  _89
REMARK   40  A    between atoms: _93  and  _95
REMARK   41  A    between atoms: _95  and  _96
REMARK   42  A    between atoms: _95  and  _98
REMARK   43  A    between atoms: _98  and  _99
REMARK   44  A    between atoms: _104  and  _106
REMARK   45  A    between atoms: _106  and  _107
REMARK   46  A    between atoms: _106  and  _109
REMARK   47  A    between atoms: _109  and  _110
REMARK   48  A    between atoms: _115  and  _116
REMARK   49  A    between atoms: _118  and  _120
REMARK   50  A    between atoms: _120  and  _121
REMARK   51  A    between atoms: _120  and  _123
REMARK   52  A    between atoms: _123  and  _124
REMARK   53  A    between atoms: _129  and  _131
REMARK   54  A    between atoms: _131  and  _132
REMARK   55  A    between atoms: _135  and  _137
REMARK   56  A    between atoms: _137  and  _138
REMARK   57  A    between atoms: _137  and  _140
REMARK   58  A    between atoms: _140  and  _141
REMARK   59  A    between atoms: _141  and  _142
REMARK   60  A    between atoms: _147  and  _149
REMARK   61  A    between atoms: _149  and  _150
REMARK   62  A    between atoms: _149  and  _152
REMARK   63  A    between atoms: _152  and  _153
REMARK   64  A    between atoms: _155  and  _157
REMARK   65  A    between atoms: _157  and  _158
REMARK   66  A    between atoms: _157  and  _160
REMARK   67  A    between atoms: _160  and  _161
REMARK   68  A    between atoms: _164  and  _166
REMARK   69  A    between atoms: _166  and  _167
REMARK   70  A    between atoms: _170  and  _172
REMARK   71  A    between atoms: _172  and  _173
REMARK   72  A    between atoms: _172  and  _175
REMARK   73  A    between atoms: _175  and  _176
REMARK   74  A    between atoms: _178  and  _180
REMARK   75  A    between atoms: _180  and  _181
REMARK   76  A    between atoms: _180  and  _183
REMARK   77  A    between atoms: _183  and  _184
REMARK   78  A    between atoms: _194  and  _196
REMARK   79  A    between atoms: _196  and  _197
REMARK   80  A    between atoms: _196  and  _199
REMARK   81  A    between atoms: _199  and  _200
REMARK   82  A    between atoms: _210  and  _212
REMARK   83  A    between atoms: _212  and  _213
REMARK   84  A    between atoms: _212  and  _215
REMARK   85  A    between atoms: _215  and  _216
REMARK   86  A    between atoms: _221  and  _223
REMARK   87  A    between atoms: _223  and  _224
REMARK   88  A    between atoms: _223  and  _226
REMARK   89  A    between atoms: _226  and  _227
REMARK   90  A    between atoms: _230  and  _232
REMARK   91  A    between atoms: _232  and  _233
REMARK   92  A    between atoms: _237  and  _238
REMARK   93  A    between atoms: _243  and  _245
REMARK   94  A    between atoms: _245  and  _246
REMARK   95  A    between atoms: _245  and  _248
REMARK   96  A    between atoms: _248  and  _249
REMARK   97  A    between atoms: _252  and  _254
REMARK   98  A    between atoms: _254  and  _255
REMARK   99  A    between atoms: _254  and  _257
REMARK  100  A    between atoms: _257  and  _258
REMARK  101  A    between atoms: _263  and  _264
REMARK  102  A    between atoms: _266  and  _268
REMARK  103  A    between atoms: _268  and  _269
REMARK  104  A    between atoms: _272  and  _274
REMARK  105  A    between atoms: _274  and  _275
REMARK  106  A    between atoms: _274  and  _277
REMARK  107  A    between atoms: _277  and  _278
REMARK  108  A    between atoms: _278  and  _279
REMARK  109  A    between atoms: _281  and  _283
REMARK  110  A    between atoms: _283  and  _284
REMARK  111  A    between atoms: _283  and  _286
REMARK  112  A    between atoms: _286  and  _287
REMARK  113  A    between atoms: _292  and  _294
REMARK  114  A    between atoms: _294  and  _295
REMARK  115  A    between atoms: _294  and  _297
REMARK  116  A    between atoms: _297  and  _298
REMARK  117  A    between atoms: _298  and  _299
REMARK  118  A    between atoms: _302  and  _304
REMARK  119  A    between atoms: _304  and  _305
REMARK  120  A    between atoms: _304  and  _307
REMARK  121  A    between atoms: _307  and  _308
REMARK  122  A    between atoms: _311  and  _313
REMARK  123  A    between atoms: _313  and  _314
REMARK  124  A    between atoms: _313  and  _316
REMARK  125  A    between atoms: _319  and  _321
REMARK  126  A    between atoms: _321  and  _322
REMARK  127  A    between atoms: _321  and  _324
REMARK  128  A    between atoms: _324  and  _325
REMARK  129  A    between atoms: _325  and  _326
REMARK  130  A    between atoms: _326  and  _327
REMARK  131  A    between atoms: _336  and  _338
REMARK  132  A    between atoms: _338  and  _339
REMARK  133  A    between atoms: _338  and  _341
REMARK  134  A    between atoms: _341  and  _342
REMARK  135  A    between atoms: _344  and  _346
REMARK  136  A    between atoms: _346  and  _347
REMARK  137  A    between atoms: _346  and  _349
REMARK  138  A    between atoms: _349  and  _350
REMARK  139  A    between atoms: _355  and  _356
REMARK  140  A    between atoms: _358  and  _360
REMARK  141  A    between atoms: _360  and  _361
REMARK  142  A    between atoms: _360  and  _363
REMARK  143  A    between atoms: _365  and  _367
REMARK  144  A    between atoms: _367  and  _368
REMARK  145  A    between atoms: _370  and  _372
REMARK  146  A    between atoms: _372  and  _373
REMARK  147  A    between atoms: _372  and  _375
REMARK  148  A    between atoms: _375  and  _376
REMARK  149  A    between atoms: _376  and  _377
REMARK  150  A    between atoms: _379  and  _381
REMARK  151  A    between atoms: _381  and  _382
REMARK  152  A    between atoms: _381  and  _384
REMARK  153  A    between atoms: _384  and  _385
REMARK  154  A    between atoms: _385  and  _386
REMARK  155  A    between atoms: _389  and  _391
REMARK  156  A    between atoms: _391  and  _392
REMARK  157  A    between atoms: _395  and  _397
REMARK  158  A    between atoms: _397  and  _398
REMARK  159  A    between atoms: _397  and  _400
REMARK  160  A    between atoms: _400  and  _401
REMARK  161  A    between atoms: _406  and  _408
REMARK  162  A    between atoms: _408  and  _409
REMARK  163  A    between atoms: _411  and  _413
REMARK  164  A    between atoms: _413  and  _414
REMARK  165  A    between atoms: _416  and  _418
REMARK  166  A    between atoms: _418  and  _419
REMARK  167  A    between atoms: _418  and  _421
REMARK  168  A    between atoms: _421  and  _422
REMARK  169  A    between atoms: _427  and  _428
REMARK  170  A    between atoms: _430  and  _432
REMARK  171  A    between atoms: _432  and  _433
REMARK  172  A    between atoms: _432  and  _435
REMARK  173  A    between atoms: _435  and  _436
REMARK  174  A    between atoms: _439  and  _441
REMARK  175  A    between atoms: _441  and  _442
REMARK  176  A    between atoms: _441  and  _444
REMARK  177  A    between atoms: _444  and  _445
REMARK  178  A    between atoms: _451  and  _453
REMARK  179  A    between atoms: _453  and  _454
REMARK  180  A    between atoms: _453  and  _456
REMARK  181  A    between atoms: _458  and  _460
REMARK  182  A    between atoms: _460  and  _461
REMARK  183  A    between atoms: _463  and  _465
REMARK  184  A    between atoms: _465  and  _466
REMARK  185  A    between atoms: _465  and  _468
REMARK  186  A    between atoms: _468  and  _469
REMARK  187  A    between atoms: _475  and  _477
REMARK  188  A    between atoms: _477  and  _478
REMARK  189  A    between atoms: _477  and  _480
REMARK  190  A    between atoms: _480  and  _481
REMARK  191  A    between atoms: _481  and  _482
REMARK  192  A    between atoms: _487  and  _489
REMARK  193  A    between atoms: _489  and  _490
REMARK  194  A    between atoms: _492  and  _494
REMARK  195  A    between atoms: _494  and  _495
REMARK  196  A    between atoms: _494  and  _497
REMARK  197  A    between atoms: _497  and  _498
REMARK  198  A    between atoms: _498  and  _499
REMARK  199  A    between atoms: _499  and  _500
REMARK  200  A    between atoms: _509  and  _511
REMARK  201  A    between atoms: _511  and  _512
REMARK  202  A    between atoms: _511  and  _514
REMARK  203  A    between atoms: _516  and  _518
REMARK  204  A    between atoms: _518  and  _519
REMARK  205  A    between atoms: _518  and  _521
REMARK  206  A    between atoms: _521  and  _522
REMARK  207  A    between atoms: _527  and  _529
REMARK  208  A    between atoms: _529  and  _530
REMARK  209  A    between atoms: _529  and  _532
REMARK  210  A    between atoms: _532  and  _533
REMARK  211  A    between atoms: _533  and  _534
REMARK  212  A    between atoms: _534  and  _535
REMARK  213  A    between atoms: _535  and  _536
REMARK  214  A    between atoms: _540  and  _542
REMARK  215  A    between atoms: _542  and  _543
REMARK  216  A    between atoms: _542  and  _545
REMARK  217  A    between atoms: _545  and  _546
REMARK  218  A    between atoms: _549  and  _551
REMARK  219  A    between atoms: _551  and  _552
REMARK  220  A    between atoms: _551  and  _554
REMARK  221  A    between atoms: _557  and  _559
REMARK  222  A    between atoms: _559  and  _560
REMARK  223  A    between atoms: _559  and  _562
REMARK  224  A    between atoms: _562  and  _563
REMARK  225  A    between atoms: _563  and  _565
REMARK  226  A    between atoms: _565  and  ZN_690
REMARK  227  A    between atoms: _566  and  _568
REMARK  228  A    between atoms: _568  and  _569
REMARK  229  A    between atoms: _568  and  _571
REMARK  230  A    between atoms: _571  and  _572
REMARK  231  A    between atoms: _572  and  ZN_690
REMARK  232  A    between atoms: _573  and  _575
REMARK  233  A    between atoms: _575  and  _576
REMARK  234  A    between atoms: _575  and  _578
REMARK  235  A    between atoms: _578  and  _579
REMARK  236  A    between atoms: _584  and  _585
REMARK  237  A    between atoms: _587  and  _589
REMARK  238  A    between atoms: _589  and  _590
REMARK  239  A    between atoms: _589  and  _592
REMARK  240  A    between atoms: _592  and  _593
REMARK  241  A    between atoms: _599  and  _601
REMARK  242  A    between atoms: _601  and  _602
REMARK  243  A    between atoms: _601  and  _604
REMARK  244  A    between atoms: _604  and  _605
REMARK  245  A    between atoms: _615  and  _617
REMARK  246  A    between atoms: _617  and  _618
REMARK  247  A    between atoms: _617  and  _620
REMARK  248  A    between atoms: _620  and  _621
REMARK  249  A    between atoms: _621  and  _622
REMARK  250  A    between atoms: _627  and  _629
REMARK  251  A    between atoms: _629  and  _630
REMARK  252  A    between atoms: _629  and  _632
REMARK  253  A    between atoms: _632  and  _633
REMARK  254  A    between atoms: _636  and  _638
REMARK  255  A    between atoms: _638  and  _639
REMARK  256  A    between atoms: _638  and  _641
REMARK  257  A    between atoms: _641  and  _642
REMARK  258  A    between atoms: _642  and  _643
REMARK  259  A    between atoms: _643  and  _644
REMARK  260  A    between atoms: _644  and  _645
REMARK  261  A    between atoms: _649  and  _651
REMARK  262  A    between atoms: _651  and  _652
REMARK  263  A    between atoms: _651  and  _654
REMARK  264  A    between atoms: _654  and  _655
REMARK  265  A    between atoms: _655  and  _656
REMARK  266  A    between atoms: _656  and  _657
REMARK  267  A    between atoms: _657  and  _658
REMARK  268  A    between atoms: _662  and  _664
REMARK  269  A    between atoms: _664  and  _665
REMARK  270  A    between atoms: _664  and  _667
REMARK  271  A    between atoms: _667  and  _668
REMARK  272  A    between atoms: _673  and  _674
REMARK  273  A    between atoms: _676  and  _678
REMARK  274  A    between atoms: _678  and  _679
REMARK  275  A    between atoms: _678  and  _681
REMARK  276  A    between atoms: _681  and  _682
REMARK  277  A    between atoms: _687  and  _688
REMARK                            x       y       z     vdW  Elec       q    Type
REMARK                         _______ _______ _______ _____ _____    ______ ____
ROOT
ATOM      1  O   HOH     1     182.893 134.260  27.093  0.00  0.00    +0.000 OA
ENDROOT
TORSDOF 0
REMARK  Name = ../refined-set-2016/1o1s/1o1s_pocket.pdb
REMARK  277 active torsions:
REMARK  status: ('A' for Active; 'I' for Inactive)
REMARK    1  A    between atoms: _1  and  _3
REMARK    2  A    between atoms: _3  and  _4
REMARK    3  A    between atoms: _7  and  _9
REMARK    4  A    between atoms: _9  and  _10
REMARK    5  A    between atoms: _9  and  _12
REMARK    6  A    between atoms: _12  and  _13
REMARK    7  A    between atoms: _18  and  _19
REMARK    8  A    between atoms: _21  and  _23
REMARK    9  A    between atoms: _23  and  _24
REMARK   10  A    between atoms: _23  and  _26
REMARK   11  A    between atoms: _26  and  _27
REMARK   12  A    between atoms: _27  and  _28
REMARK   13  A    between atoms: _28  and  _29
REMARK   14  A    between atoms: _29  and  _30
REMARK   15  A    between atoms: _34  and  _36
REMARK   16  A    between atoms: _36  and  _37
REMARK   17  A    between atoms: _36  and  _39
REMARK   18  A    between atoms: _39  and  _40
REMARK   19  A    between atoms: _45  and  _47
REMARK   20  A    between atoms: _47  and  _48
REMARK   21  A    between atoms: _47  and  _50
REMARK   22  A    between atoms: _50  and  _51
REMARK   23  A    between atoms: _56  and  _57
REMARK   24  A    between atoms: _59  and  _61
REMARK   25  A    between atoms: _61  and  _62
REMARK   26  A    between atoms: _61  and  _64
REMARK   27  A    between atoms: _64  and  _65
REMARK   28  A    between atoms: _65  and  _66
REMARK   29  A    between atoms: _71  and  _73
REMARK   30  A    between atoms: _73  and  _74
REMARK   31  A    between atoms: _73  and  _76
REMARK   32  A    between atoms: _76  and  _77
REMARK   33  A    between atoms: _80  and  _82
REMARK   34  A    between atoms: _82  and  _83
REMARK   35  A    between atoms: _82  and  _85
REMARK   36  A    between atoms: _85  and  _86
REMARK   37  A    between atoms: _86  and  _87
REMARK   38  A    between atoms: _87  and  _88
REMARK   39  A    between atoms: _88  and  _89
REMARK   40  A    between atoms: _93  and  _95
REMARK   41  A    between atoms: _95  and  _96
REMARK   42  A    between atoms: _95  and  _98
REMARK   43  A    between atoms: _98  and  _99
REMARK   44  A    between atoms: _104  and  _106
REMARK   45  A    between atoms: _106  and  _107
REMARK   46  A    between atoms: _106  and  _109
REMARK   47  A    between atoms: _109  and  _110
REMARK   48  A    between atoms: _115  and  _116
REMARK   49  A    between atoms: _118  and  _120
REMARK   50  A    between atoms: _120  and  _121
REMARK   51  A    between atoms: _120  and  _123
REMARK   52  A    between atoms: _123  and  _124
REMARK   53  A    between atoms: _129  and  _131
REMARK   54  A    between atoms: _131  and  _132
REMARK   55  A    between atoms: _135  and  _137
REMARK   56  A    between atoms: _137  and  _138
REMARK   57  A    between atoms: _137  and  _140
REMARK   58  A    between atoms: _140  and  _141
REMARK   59  A    between atoms: _141  and  _142
REMARK   60  A    between atoms: _147  and  _149
REMARK   61  A    between atoms: _149  and  _150
REMARK   62  A    between atoms: _149  and  _152
REMARK   63  A    between atoms: _152  and  _153
REMARK   64  A    between atoms: _155  and  _157
REMARK   65  A    between atoms: _157  and  _158
REMARK   66  A    between atoms: _157  and  _160
REMARK   67  A    between atoms: _160  and  _161
REMARK   68  A    between atoms: _164  and  _166
REMARK   69  A    between atoms: _166  and  _167
REMARK   70  A    between atoms: _170  and  _172
REMARK   71  A    between atoms: _172  and  _173
REMARK   72  A    between atoms: _172  and  _175
REMARK   73  A    between atoms: _175  and  _176
REMARK   74  A    between atoms: _178  and  _180
REMARK   75  A    between atoms: _180  and  _181
REMARK   76  A    between atoms: _180  and  _183
REMARK   77  A    between atoms: _183  and  _184
REMARK   78  A    between atoms: _194  and  _196
REMARK   79  A    between atoms: _196  and  _197
REMARK   80  A    between atoms: _196  and  _199
REMARK   81  A    between atoms: _199  and  _200
REMARK   82  A    between atoms: _210  and  _212
REMARK   83  A    between atoms: _212  and  _213
REMARK   84  A    between atoms: _212  and  _215
REMARK   85  A    between atoms: _215  and  _216
REMARK   86  A    between atoms: _221  and  _223
REMARK   87  A    between atoms: _223  and  _224
REMARK   88  A    between atoms: _223  and  _226
REMARK   89  A    between atoms: _226  and  _227
REMARK   90  A    between atoms: _230  and  _232
REMARK   91  A    between atoms: _232  and  _233
REMARK   92  A    between atoms: _237  and  _238
REMARK   93  A    between atoms: _243  and  _245
REMARK   94  A    between atoms: _245  and  _246
REMARK   95  A    between atoms: _245  and  _248
REMARK   96  A    between atoms: _248  and  _249
REMARK   97  A    between atoms: _252  and  _254
REMARK   98  A    between atoms: _254  and  _255
REMARK   99  A    between atoms: _254  and  _257
REMARK  100  A    between atoms: _257  and  _258
REMARK  101  A    between atoms: _263  and  _264
REMARK  102  A    between atoms: _266  and  _268
REMARK  103  A    between atoms: _268  and  _269
REMARK  104  A    between atoms: _272  and  _274
REMARK  105  A    between atoms: _274  and  _275
REMARK  106  A    between atoms: _274  and  _277
REMARK  107  A    between atoms: _277  and  _278
REMARK  108  A    between atoms: _278  and  _279
REMARK  109  A    between atoms: _281  and  _283
REMARK  110  A    between atoms: _283  and  _284
REMARK  111  A    between atoms: _283  and  _286
REMARK  112  A    between atoms: _286  and  _287
REMARK  113  A    between atoms: _292  and  _294
REMARK  114  A    between atoms: _294  and  _295
REMARK  115  A    between atoms: _294  and  _297
REMARK  116  A    between atoms: _297  and  _298
REMARK  117  A    between atoms: _298  and  _299
REMARK  118  A    between atoms: _302  and  _304
REMARK  119  A    between atoms: _304  and  _305
REMARK  120  A    between atoms: _304  and  _307
REMARK  121  A    between atoms: _307  and  _308
REMARK  122  A    between atoms: _311  and  _313
REMARK  123  A    between atoms: _313  and  _314
REMARK  124  A    between atoms: _313  and  _316
REMARK  125  A    between atoms: _319  and  _321
REMARK  126  A    between atoms: _321  and  _322
REMARK  127  A    between atoms: _321  and  _324
REMARK  128  A    between atoms: _324  and  _325
REMARK  129  A    between atoms: _325  and  _326
REMARK  130  A    between atoms: _326  and  _327
REMARK  131  A    between atoms: _336  and  _338
REMARK  132  A    between atoms: _338  and  _339
REMARK  133  A    between atoms: _338  and  _341
REMARK  134  A    between atoms: _341  and  _342
REMARK  135  A    between atoms: _344  and  _346
REMARK  136  A    between atoms: _346  and  _347
REMARK  137  A    between atoms: _346  and  _349
REMARK  138  A    between atoms: _349  and  _350
REMARK  139  A    between atoms: _355  and  _356
REMARK  140  A    between atoms: _358  and  _360
REMARK  141  A    between atoms: _360  and  _361
REMARK  142  A    between atoms: _360  and  _363
REMARK  143  A    between atoms: _365  and  _367
REMARK  144  A    between atoms: _367  and  _368
REMARK  145  A    between atoms: _370  and  _372
REMARK  146  A    between atoms: _372  and  _373
REMARK  147  A    between atoms: _372  and  _375
REMARK  148  A    between atoms: _375  and  _376
REMARK  149  A    between atoms: _376  and  _377
REMARK  150  A    between atoms: _379  and  _381
REMARK  151  A    between atoms: _381  and  _382
REMARK  152  A    between atoms: _381  and  _384
REMARK  153  A    between atoms: _384  and  _385
REMARK  154  A    between atoms: _385  and  _386
REMARK  155  A    between atoms: _389  and  _391
REMARK  156  A    between atoms: _391  and  _392
REMARK  157  A    between atoms: _395  and  _397
REMARK  158  A    between atoms: _397  and  _398
REMARK  159  A    between atoms: _397  and  _400
REMARK  160  A    between atoms: _400  and  _401
REMARK  161  A    between atoms: _406  and  _408
REMARK  162  A    between atoms: _408  and  _409
REMARK  163  A    between atoms: _411  and  _413
REMARK  164  A    between atoms: _413  and  _414
REMARK  165  A    between atoms: _416  and  _418
REMARK  166  A    between atoms: _418  and  _419
REMARK  167  A    between atoms: _418  and  _421
REMARK  168  A    between atoms: _421  and  _422
REMARK  169  A    between atoms: _427  and  _428
REMARK  170  A    between atoms: _430  and  _432
REMARK  171  A    between atoms: _432  and  _433
REMARK  172  A    between atoms: _432  and  _435
REMARK  173  A    between atoms: _435  and  _436
REMARK  174  A    between atoms: _439  and  _441
REMARK  175  A    between atoms: _441  and  _442
REMARK  176  A    between atoms: _441  and  _444
REMARK  177  A    between atoms: _444  and  _445
REMARK  178  A    between atoms: _451  and  _453
REMARK  179  A    between atoms: _453  and  _454
REMARK  180  A    between atoms: _453  and  _456
REMARK  181  A    between atoms: _458  and  _460
REMARK  182  A    between atoms: _460  and  _461
REMARK  183  A    between atoms: _463  and  _465
REMARK  184  A    between atoms: _465  and  _466
REMARK  185  A    between atoms: _465  and  _468
REMARK  186  A    between atoms: _468  and  _469
REMARK  187  A    between atoms: _475  and  _477
REMARK  188  A    between atoms: _477  and  _478
REMARK  189  A    between atoms: _477  and  _480
REMARK  190  A    between atoms: _480  and  _481
REMARK  191  A    between atoms: _481  and  _482
REMARK  192  A    between atoms: _487  and  _489
REMARK  193  A    between atoms: _489  and  _490
REMARK  194  A    between atoms: _492  and  _494
REMARK  195  A    between atoms: _494  and  _495
REMARK  196  A    between atoms: _494  and  _497
REMARK  197  A    between atoms: _497  and  _498
REMARK  198  A    between atoms: _498  and  _499
REMARK  199  A    between atoms: _499  and  _500
REMARK  200  A    between atoms: _509  and  _511
REMARK  201  A    between atoms: _511  and  _512
REMARK  202  A    between atoms: _511  and  _514
REMARK  203  A    between atoms: _516  and  _518
REMARK  204  A    between atoms: _518  and  _519
REMARK  205  A    between atoms: _518  and  _521
REMARK  206  A    between atoms: _521  and  _522
REMARK  207  A    between atoms: _527  and  _529
REMARK  208  A    between atoms: _529  and  _530
REMARK  209  A    between atoms: _529  and  _532
REMARK  210  A    between atoms: _532  and  _533
REMARK  211  A    between atoms: _533  and  _534
REMARK  212  A    between atoms: _534  and  _535
REMARK  213  A    between atoms: _535  and  _536
REMARK  214  A    between atoms: _540  and  _542
REMARK  215  A    between atoms: _542  and  _543
REMARK  216  A    between atoms: _542  and  _545
REMARK  217  A    between atoms: _545  and  _546
REMARK  218  A    between atoms: _549  and  _551
REMARK  219  A    between atoms: _551  and  _552
REMARK  220  A    between atoms: _551  and  _554
REMARK  221  A    between atoms: _557  and  _559
REMARK  222  A    between atoms: _559  and  _560
REMARK  223  A    between atoms: _559  and  _562
REMARK  224  A    between atoms: _562  and  _563
REMARK  225  A    between atoms: _563  and  _565
REMARK  226  A    between atoms: _565  and  ZN_690
REMARK  227  A    between atoms: _566  and  _568
REMARK  228  A    between atoms: _568  and  _569
REMARK  229  A    between atoms: _568  and  _571
REMARK  230  A    between atoms: _571  and  _572
REMARK  231  A    between atoms: _572  and  ZN_690
REMARK  232  A    between atoms: _573  and  _575
REMARK  233  A    between atoms: _575  and  _576
REMARK  234  A    between atoms: _575  and  _578
REMARK  235  A    between atoms: _578  and  _579
REMARK  236  A    between atoms: _584  and  _585
REMARK  237  A    between atoms: _587  and  _589
REMARK  238  A    between atoms: _589  and  _590
REMARK  239  A    between atoms: _589  and  _592
REMARK  240  A    between atoms: _592  and  _593
REMARK  241  A    between atoms: _599  and  _601
REMARK  242  A    between atoms: _601  and  _602
REMARK  243  A    between atoms: _601  and  _604
REMARK  244  A    between atoms: _604  and  _605
REMARK  245  A    between atoms: _615  and  _617
REMARK  246  A    between atoms: _617  and  _618
REMARK  247  A    between atoms: _617  and  _620
REMARK  248  A    between atoms: _620  and  _621
REMARK  249  A    between atoms: _621  and  _622
REMARK  250  A    between atoms: _627  and  _629
REMARK  251  A    between atoms: _629  and  _630
REMARK  252  A    between atoms: _629  and  _632
REMARK  253  A    between atoms: _632  and  _633
REMARK  254  A    between atoms: _636  and  _638
REMARK  255  A    between atoms: _638  and  _639
REMARK  256  A    between atoms: _638  and  _641
REMARK  257  A    between atoms: _641  and  _642
REMARK  258  A    between atoms: _642  and  _643
REMARK  259  A    between atoms: _643  and  _644
REMARK  260  A    between atoms: _644  and  _645
REMARK  261  A    between atoms: _649  and  _651
REMARK  262  A    between atoms: _651  and  _652
REMARK  263  A    between atoms: _651  and  _654
REMARK  264  A    between atoms: _654  and  _655
REMARK  265  A    between atoms: _655  and  _656
REMARK  266  A    between atoms: _656  and  _657
REMARK  267  A    between atoms: _657  and  _658
REMARK  268  A    between atoms: _662  and  _664
REMARK  269  A    between atoms: _664  and  _665
REMARK  270  A    between atoms: _664  and  _667
REMARK  271  A    between atoms: _667  and  _668
REMARK  272  A    between atoms: _673  and  _674
REMARK  273  A    between atoms: _676  and  _678
REMARK  274  A    between atoms: _678  and  _679
REMARK  275  A    between atoms: _678  and  _681
REMARK  276  A    between atoms: _681  and  _682
REMARK  277  A    between atoms: _687  and  _688
REMARK                            x       y       z     vdW  Elec       q    Type
REMARK                         _______ _______ _______ _____ _____    ______ ____
ROOT
ATOM      1  O   HOH     1     183.448 131.385  26.820  0.00  0.00    +0.000 OA
ENDROOT
TORSDOF 0
REMARK  Name = ../refined-set-2016/1o1s/1o1s_pocket.pdb
REMARK  277 active torsions:
REMARK  status: ('A' for Active; 'I' for Inactive)
REMARK    1  A    between atoms: _1  and  _3
REMARK    2  A    between atoms: _3  and  _4
REMARK    3  A    between atoms: _7  and  _9
REMARK    4  A    between atoms: _9  and  _10
REMARK    5  A    between atoms: _9  and  _12
REMARK    6  A    between atoms: _12  and  _13
REMARK    7  A    between atoms: _18  and  _19
REMARK    8  A    between atoms: _21  and  _23
REMARK    9  A    between atoms: _23  and  _24
REMARK   10  A    between atoms: _23  and  _26
REMARK   11  A    between atoms: _26  and  _27
REMARK   12  A    between atoms: _27  and  _28
REMARK   13  A    between atoms: _28  and  _29
REMARK   14  A    between atoms: _29  and  _30
REMARK   15  A    between atoms: _34  and  _36
REMARK   16  A    between atoms: _36  and  _37
REMARK   17  A    between atoms: _36  and  _39
REMARK   18  A    between atoms: _39  and  _40
REMARK   19  A    between atoms: _45  and  _47
REMARK   20  A    between atoms: _47  and  _48
REMARK   21  A    between atoms: _47  and  _50
REMARK   22  A    between atoms: _50  and  _51
REMARK   23  A    between atoms: _56  and  _57
REMARK   24  A    between atoms: _59  and  _61
REMARK   25  A    between atoms: _61  and  _62
REMARK   26  A    between atoms: _61  and  _64
REMARK   27  A    between atoms: _64  and  _65
REMARK   28  A    between atoms: _65  and  _66
REMARK   29  A    between atoms: _71  and  _73
REMARK   30  A    between atoms: _73  and  _74
REMARK   31  A    between atoms: _73  and  _76
REMARK   32  A    between atoms: _76  and  _77
REMARK   33  A    between atoms: _80  and  _82
REMARK   34  A    between atoms: _82  and  _83
REMARK   35  A    between atoms: _82  and  _85
REMARK   36  A    between atoms: _85  and  _86
REMARK   37  A    between atoms: _86  and  _87
REMARK   38  A    between atoms: _87  and  _88
REMARK   39  A    between atoms: _88  and  _89
REMARK   40  A    between atoms: _93  and  _95
REMARK   41  A    between atoms: _95  and  _96
REMARK   42  A    between atoms: _95  and  _98
REMARK   43  A    between atoms: _98  and  _99
REMARK   44  A    between atoms: _104  and  _106
REMARK   45  A    between atoms: _106  and  _107
REMARK   46  A    between atoms: _106  and  _109
REMARK   47  A    between atoms: _109  and  _110
REMARK   48  A    between atoms: _115  and  _116
REMARK   49  A    between atoms: _118  and  _120
REMARK   50  A    between atoms: _120  and  _121
REMARK   51  A    between atoms: _120  and  _123
REMARK   52  A    between atoms: _123  and  _124
REMARK   53  A    between atoms: _129  and  _131
REMARK   54  A    between atoms: _131  and  _132
REMARK   55  A    between atoms: _135  and  _137
REMARK   56  A    between atoms: _137  and  _138
REMARK   57  A    between atoms: _137  and  _140
REMARK   58  A    between atoms: _140  and  _141
REMARK   59  A    between atoms: _141  and  _142
REMARK   60  A    between atoms: _147  and  _149
REMARK   61  A    between atoms: _149  and  _150
REMARK   62  A    between atoms: _149  and  _152
REMARK   63  A    between atoms: _152  and  _153
REMARK   64  A    between atoms: _155  and  _157
REMARK   65  A    between atoms: _157  and  _158
REMARK   66  A    between atoms: _157  and  _160
REMARK   67  A    between atoms: _160  and  _161
REMARK   68  A    between atoms: _164  and  _166
REMARK   69  A    between atoms: _166  and  _167
REMARK   70  A    between atoms: _170  and  _172
REMARK   71  A    between atoms: _172  and  _173
REMARK   72  A    between atoms: _172  and  _175
REMARK   73  A    between atoms: _175  and  _176
REMARK   74  A    between atoms: _178  and  _180
REMARK   75  A    between atoms: _180  and  _181
REMARK   76  A    between atoms: _180  and  _183
REMARK   77  A    between atoms: _183  and  _184
REMARK   78  A    between atoms: _194  and  _196
REMARK   79  A    between atoms: _196  and  _197
REMARK   80  A    between atoms: _196  and  _199
REMARK   81  A    between atoms: _199  and  _200
REMARK   82  A    between atoms: _210  and  _212
REMARK   83  A    between atoms: _212  and  _213
REMARK   84  A    between atoms: _212  and  _215
REMARK   85  A    between atoms: _215  and  _216
REMARK   86  A    between atoms: _221  and  _223
REMARK   87  A    between atoms: _223  and  _224
REMARK   88  A    between atoms: _223  and  _226
REMARK   89  A    between atoms: _226  and  _227
REMARK   90  A    between atoms: _230  and  _232
REMARK   91  A    between atoms: _232  and  _233
REMARK   92  A    between atoms: _237  and  _238
REMARK   93  A    between atoms: _243  and  _245
REMARK   94  A    between atoms: _245  and  _246
REMARK   95  A    between atoms: _245  and  _248
REMARK   96  A    between atoms: _248  and  _249
REMARK   97  A    between atoms: _252  and  _254
REMARK   98  A    between atoms: _254  and  _255
REMARK   99  A    between atoms: _254  and  _257
REMARK  100  A    between atoms: _257  and  _258
REMARK  101  A    between atoms: _263  and  _264
REMARK  102  A    between atoms: _266  and  _268
REMARK  103  A    between atoms: _268  and  _269
REMARK  104  A    between atoms: _272  and  _274
REMARK  105  A    between atoms: _274  and  _275
REMARK  106  A    between atoms: _274  and  _277
REMARK  107  A    between atoms: _277  and  _278
REMARK  108  A    between atoms: _278  and  _279
REMARK  109  A    between atoms: _281  and  _283
REMARK  110  A    between atoms: _283  and  _284
REMARK  111  A    between atoms: _283  and  _286
REMARK  112  A    between atoms: _286  and  _287
REMARK  113  A    between atoms: _292  and  _294
REMARK  114  A    between atoms: _294  and  _295
REMARK  115  A    between atoms: _294  and  _297
REMARK  116  A    between atoms: _297  and  _298
REMARK  117  A    between atoms: _298  and  _299
REMARK  118  A    between atoms: _302  and  _304
REMARK  119  A    between atoms: _304  and  _305
REMARK  120  A    between atoms: _304  and  _307
REMARK  121  A    between atoms: _307  and  _308
REMARK  122  A    between atoms: _311  and  _313
REMARK  123  A    between atoms: _313  and  _314
REMARK  124  A    between atoms: _313  and  _316
REMARK  125  A    between atoms: _319  and  _321
REMARK  126  A    between atoms: _321  and  _322
REMARK  127  A    between atoms: _321  and  _324
REMARK  128  A    between atoms: _324  and  _325
REMARK  129  A    between atoms: _325  and  _326
REMARK  130  A    between atoms: _326  and  _327
REMARK  131  A    between atoms: _336  and  _338
REMARK  132  A    between atoms: _338  and  _339
REMARK  133  A    between atoms: _338  and  _341
REMARK  134  A    between atoms: _341  and  _342
REMARK  135  A    between atoms: _344  and  _346
REMARK  136  A    between atoms: _346  and  _347
REMARK  137  A    between atoms: _346  and  _349
REMARK  138  A    between atoms: _349  and  _350
REMARK  139  A    between atoms: _355  and  _356
REMARK  140  A    between atoms: _358  and  _360
REMARK  141  A    between atoms: _360  and  _361
REMARK  142  A    between atoms: _360  and  _363
REMARK  143  A    between atoms: _365  and  _367
REMARK  144  A    between atoms: _367  and  _368
REMARK  145  A    between atoms: _370  and  _372
REMARK  146  A    between atoms: _372  and  _373
REMARK  147  A    between atoms: _372  and  _375
REMARK  148  A    between atoms: _375  and  _376
REMARK  149  A    between atoms: _376  and  _377
REMARK  150  A    between atoms: _379  and  _381
REMARK  151  A    between atoms: _381  and  _382
REMARK  152  A    between atoms: _381  and  _384
REMARK  153  A    between atoms: _384  and  _385
REMARK  154  A    between atoms: _385  and  _386
REMARK  155  A    between atoms: _389  and  _391
REMARK  156  A    between atoms: _391  and  _392
REMARK  157  A    between atoms: _395  and  _397
REMARK  158  A    between atoms: _397  and  _398
REMARK  159  A    between atoms: _397  and  _400
REMARK  160  A    between atoms: _400  and  _401
REMARK  161  A    between atoms: _406  and  _408
REMARK  162  A    between atoms: _408  and  _409
REMARK  163  A    between atoms: _411  and  _413
REMARK  164  A    between atoms: _413  and  _414
REMARK  165  A    between atoms: _416  and  _418
REMARK  166  A    between atoms: _418  and  _419
REMARK  167  A    between atoms: _418  and  _421
REMARK  168  A    between atoms: _421  and  _422
REMARK  169  A    between atoms: _427  and  _428
REMARK  170  A    between atoms: _430  and  _432
REMARK  171  A    between atoms: _432  and  _433
REMARK  172  A    between atoms: _432  and  _435
REMARK  173  A    between atoms: _435  and  _436
REMARK  174  A    between atoms: _439  and  _441
REMARK  175  A    between atoms: _441  and  _442
REMARK  176  A    between atoms: _441  and  _444
REMARK  177  A    between atoms: _444  and  _445
REMARK  178  A    between atoms: _451  and  _453
REMARK  179  A    between atoms: _453  and  _454
REMARK  180  A    between atoms: _453  and  _456
REMARK  181  A    between atoms: _458  and  _460
REMARK  182  A    between atoms: _460  and  _461
REMARK  183  A    between atoms: _463  and  _465
REMARK  184  A    between atoms: _465  and  _466
REMARK  185  A    between atoms: _465  and  _468
REMARK  186  A    between atoms: _468  and  _469
REMARK  187  A    between atoms: _475  and  _477
REMARK  188  A    between atoms: _477  and  _478
REMARK  189  A    between atoms: _477  and  _480
REMARK  190  A    between atoms: _480  and  _481
REMARK  191  A    between atoms: _481  and  _482
REMARK  192  A    between atoms: _487  and  _489
REMARK  193  A    between atoms: _489  and  _490
REMARK  194  A    between atoms: _492  and  _494
REMARK  195  A    between atoms: _494  and  _495
REMARK  196  A    between atoms: _494  and  _497
REMARK  197  A    between atoms: _497  and  _498
REMARK  198  A    between atoms: _498  and  _499
REMARK  199  A    between atoms: _499  and  _500
REMARK  200  A    between atoms: _509  and  _511
REMARK  201  A    between atoms: _511  and  _512
REMARK  202  A    between atoms: _511  and  _514
REMARK  203  A    between atoms: _516  and  _518
REMARK  204  A    between atoms: _518  and  _519
REMARK  205  A    between atoms: _518  and  _521
REMARK  206  A    between atoms: _521  and  _522
REMARK  207  A    between atoms: _527  and  _529
REMARK  208  A    between atoms: _529  and  _530
REMARK  209  A    between atoms: _529  and  _532
REMARK  210  A    between atoms: _532  and  _533
REMARK  211  A    between atoms: _533  and  _534
REMARK  212  A    between atoms: _534  and  _535
REMARK  213  A    between atoms: _535  and  _536
REMARK  214  A    between atoms: _540  and  _542
REMARK  215  A    between atoms: _542  and  _543
REMARK  216  A    between atoms: _542  and  _545
REMARK  217  A    between atoms: _545  and  _546
REMARK  218  A    between atoms: _549  and  _551
REMARK  219  A    between atoms: _551  and  _552
REMARK  220  A    between atoms: _551  and  _554
REMARK  221  A    between atoms: _557  and  _559
REMARK  222  A    between atoms: _559  and  _560
REMARK  223  A    between atoms: _559  and  _562
REMARK  224  A    between atoms: _562  and  _563
REMARK  225  A    between atoms: _563  and  _565
REMARK  226  A    between atoms: _565  and  ZN_690
REMARK  227  A    between atoms: _566  and  _568
REMARK  228  A    between atoms: _568  and  _569
REMARK  229  A    between atoms: _568  and  _571
REMARK  230  A    between atoms: _571  and  _572
REMARK  231  A    between atoms: _572  and  ZN_690
REMARK  232  A    between atoms: _573  and  _575
REMARK  233  A    between atoms: _575  and  _576
REMARK  234  A    between atoms: _575  and  _578
REMARK  235  A    between atoms: _578  and  _579
REMARK  236  A    between atoms: _584  and  _585
REMARK  237  A    between atoms: _587  and  _589
REMARK  238  A    between atoms: _589  and  _590
REMARK  239  A    between atoms: _589  and  _592
REMARK  240  A    between atoms: _592  and  _593
REMARK  241  A    between atoms: _599  and  _601
REMARK  242  A    between atoms: _601  and  _602
REMARK  243  A    between atoms: _601  and  _604
REMARK  244  A    between atoms: _604  and  _605
REMARK  245  A    between atoms: _615  and  _617
REMARK  246  A    between atoms: _617  and  _618
REMARK  247  A    between atoms: _617  and  _620
REMARK  248  A    between atoms: _620  and  _621
REMARK  249  A    between atoms: _621  and  _622
REMARK  250  A    between atoms: _627  and  _629
REMARK  251  A    between atoms: _629  and  _630
REMARK  252  A    between atoms: _629  and  _632
REMARK  253  A    between atoms: _632  and  _633
REMARK  254  A    between atoms: _636  and  _638
REMARK  255  A    between atoms: _638  and  _639
REMARK  256  A    between atoms: _638  and  _641
REMARK  257  A    between atoms: _641  and  _642
REMARK  258  A    between atoms: _642  and  _643
REMARK  259  A    between atoms: _643  and  _644
REMARK  260  A    between atoms: _644  and  _645
REMARK  261  A    between atoms: _649  and  _651
REMARK  262  A    between atoms: _651  and  _652
REMARK  263  A    between atoms: _651  and  _654
REMARK  264  A    between atoms: _654  and  _655
REMARK  265  A    between atoms: _655  and  _656
REMARK  266  A    between atoms: _656  and  _657
REMARK  267  A    between atoms: _657  and  _658
REMARK  268  A    between atoms: _662  and  _664
REMARK  269  A    between atoms: _664  and  _665
REMARK  270  A    between atoms: _664  and  _667
REMARK  271  A    between atoms: _667  and  _668
REMARK  272  A    between atoms: _673  and  _674
REMARK  273  A    between atoms: _676  and  _678
REMARK  274  A    between atoms: _678  and  _679
REMARK  275  A    between atoms: _678  and  _681
REMARK  276  A    between atoms: _681  and  _682
REMARK  277  A    between atoms: _687  and  _688
REMARK                            x       y       z     vdW  Elec       q    Type
REMARK                         _______ _______ _______ _____ _____    ______ ____
ROOT
ATOM      1  O   HOH     1     198.113 125.777  29.962  0.00  0.00    +0.000 OA
ENDROOT
TORSDOF 0
REMARK  Name = ../refined-set-2016/1o1s/1o1s_pocket.pdb
REMARK  277 active torsions:
REMARK  status: ('A' for Active; 'I' for Inactive)
REMARK    1  A    between atoms: _1  and  _3
REMARK    2  A    between atoms: _3  and  _4
REMARK    3  A    between atoms: _7  and  _9
REMARK    4  A    between atoms: _9  and  _10
REMARK    5  A    between atoms: _9  and  _12
REMARK    6  A    between atoms: _12  and  _13
REMARK    7  A    between atoms: _18  and  _19
REMARK    8  A    between atoms: _21  and  _23
REMARK    9  A    between atoms: _23  and  _24
REMARK   10  A    between atoms: _23  and  _26
REMARK   11  A    between atoms: _26  and  _27
REMARK   12  A    between atoms: _27  and  _28
REMARK   13  A    between atoms: _28  and  _29
REMARK   14  A    between atoms: _29  and  _30
REMARK   15  A    between atoms: _34  and  _36
REMARK   16  A    between atoms: _36  and  _37
REMARK   17  A    between atoms: _36  and  _39
REMARK   18  A    between atoms: _39  and  _40
REMARK   19  A    between atoms: _45  and  _47
REMARK   20  A    between atoms: _47  and  _48
REMARK   21  A    between atoms: _47  and  _50
REMARK   22  A    between atoms: _50  and  _51
REMARK   23  A    between atoms: _56  and  _57
REMARK   24  A    between atoms: _59  and  _61
REMARK   25  A    between atoms: _61  and  _62
REMARK   26  A    between atoms: _61  and  _64
REMARK   27  A    between atoms: _64  and  _65
REMARK   28  A    between atoms: _65  and  _66
REMARK   29  A    between atoms: _71  and  _73
REMARK   30  A    between atoms: _73  and  _74
REMARK   31  A    between atoms: _73  and  _76
REMARK   32  A    between atoms: _76  and  _77
REMARK   33  A    between atoms: _80  and  _82
REMARK   34  A    between atoms: _82  and  _83
REMARK   35  A    between atoms: _82  and  _85
REMARK   36  A    between atoms: _85  and  _86
REMARK   37  A    between atoms: _86  and  _87
REMARK   38  A    between atoms: _87  and  _88
REMARK   39  A    between atoms: _88  and  _89
REMARK   40  A    between atoms: _93  and  _95
REMARK   41  A    between atoms: _95  and  _96
REMARK   42  A    between atoms: _95  and  _98
REMARK   43  A    between atoms: _98  and  _99
REMARK   44  A    between atoms: _104  and  _106
REMARK   45  A    between atoms: _106  and  _107
REMARK   46  A    between atoms: _106  and  _109
REMARK   47  A    between atoms: _109  and  _110
REMARK   48  A    between atoms: _115  and  _116
REMARK   49  A    between atoms: _118  and  _120
REMARK   50  A    between atoms: _120  and  _121
REMARK   51  A    between atoms: _120  and  _123
REMARK   52  A    between atoms: _123  and  _124
REMARK   53  A    between atoms: _129  and  _131
REMARK   54  A    between atoms: _131  and  _132
REMARK   55  A    between atoms: _135  and  _137
REMARK   56  A    between atoms: _137  and  _138
REMARK   57  A    between atoms: _137  and  _140
REMARK   58  A    between atoms: _140  and  _141
REMARK   59  A    between atoms: _141  and  _142
REMARK   60  A    between atoms: _147  and  _149
REMARK   61  A    between atoms: _149  and  _150
REMARK   62  A    between atoms: _149  and  _152
REMARK   63  A    between atoms: _152  and  _153
REMARK   64  A    between atoms: _155  and  _157
REMARK   65  A    between atoms: _157  and  _158
REMARK   66  A    between atoms: _157  and  _160
REMARK   67  A    between atoms: _160  and  _161
REMARK   68  A    between atoms: _164  and  _166
REMARK   69  A    between atoms: _166  and  _167
REMARK   70  A    between atoms: _170  and  _172
REMARK   71  A    between atoms: _172  and  _173
REMARK   72  A    between atoms: _172  and  _175
REMARK   73  A    between atoms: _175  and  _176
REMARK   74  A    between atoms: _178  and  _180
REMARK   75  A    between atoms: _180  and  _181
REMARK   76  A    between atoms: _180  and  _183
REMARK   77  A    between atoms: _183  and  _184
REMARK   78  A    between atoms: _194  and  _196
REMARK   79  A    between atoms: _196  and  _197
REMARK   80  A    between atoms: _196  and  _199
REMARK   81  A    between atoms: _199  and  _200
REMARK   82  A    between atoms: _210  and  _212
REMARK   83  A    between atoms: _212  and  _213
REMARK   84  A    between atoms: _212  and  _215
REMARK   85  A    between atoms: _215  and  _216
REMARK   86  A    between atoms: _221  and  _223
REMARK   87  A    between atoms: _223  and  _224
REMARK   88  A    between atoms: _223  and  _226
REMARK   89  A    between atoms: _226  and  _227
REMARK   90  A    between atoms: _230  and  _232
REMARK   91  A    between atoms: _232  and  _233
REMARK   92  A    between atoms: _237  and  _238
REMARK   93  A    between atoms: _243  and  _245
REMARK   94  A    between atoms: _245  and  _246
REMARK   95  A    between atoms: _245  and  _248
REMARK   96  A    between atoms: _248  and  _249
REMARK   97  A    between atoms: _252  and  _254
REMARK   98  A    between atoms: _254  and  _255
REMARK   99  A    between atoms: _254  and  _257
REMARK  100  A    between atoms: _257  and  _258
REMARK  101  A    between atoms: _263  and  _264
REMARK  102  A    between atoms: _266  and  _268
REMARK  103  A    between atoms: _268  and  _269
REMARK  104  A    between atoms: _272  and  _274
REMARK  105  A    between atoms: _274  and  _275
REMARK  106  A    between atoms: _274  and  _277
REMARK  107  A    between atoms: _277  and  _278
REMARK  108  A    between atoms: _278  and  _279
REMARK  109  A    between atoms: _281  and  _283
REMARK  110  A    between atoms: _283  and  _284
REMARK  111  A    between atoms: _283  and  _286
REMARK  112  A    between atoms: _286  and  _287
REMARK  113  A    between atoms: _292  and  _294
REMARK  114  A    between atoms: _294  and  _295
REMARK  115  A    between atoms: _294  and  _297
REMARK  116  A    between atoms: _297  and  _298
REMARK  117  A    between atoms: _298  and  _299
REMARK  118  A    between atoms: _302  and  _304
REMARK  119  A    between atoms: _304  and  _305
REMARK  120  A    between atoms: _304  and  _307
REMARK  121  A    between atoms: _307  and  _308
REMARK  122  A    between atoms: _311  and  _313
REMARK  123  A    between atoms: _313  and  _314
REMARK  124  A    between atoms: _313  and  _316
REMARK  125  A    between atoms: _319  and  _321
REMARK  126  A    between atoms: _321  and  _322
REMARK  127  A    between atoms: _321  and  _324
REMARK  128  A    between atoms: _324  and  _325
REMARK  129  A    between atoms: _325  and  _326
REMARK  130  A    between atoms: _326  and  _327
REMARK  131  A    between atoms: _336  and  _338
REMARK  132  A    between atoms: _338  and  _339
REMARK  133  A    between atoms: _338  and  _341
REMARK  134  A    between atoms: _341  and  _342
REMARK  135  A    between atoms: _344  and  _346
REMARK  136  A    between atoms: _346  and  _347
REMARK  137  A    between atoms: _346  and  _349
REMARK  138  A    between atoms: _349  and  _350
REMARK  139  A    between atoms: _355  and  _356
REMARK  140  A    between atoms: _358  and  _360
REMARK  141  A    between atoms: _360  and  _361
REMARK  142  A    between atoms: _360  and  _363
REMARK  143  A    between atoms: _365  and  _367
REMARK  144  A    between atoms: _367  and  _368
REMARK  145  A    between atoms: _370  and  _372
REMARK  146  A    between atoms: _372  and  _373
REMARK  147  A    between atoms: _372  and  _375
REMARK  148  A    between atoms: _375  and  _376
REMARK  149  A    between atoms: _376  and  _377
REMARK  150  A    between atoms: _379  and  _381
REMARK  151  A    between atoms: _381  and  _382
REMARK  152  A    between atoms: _381  and  _384
REMARK  153  A    between atoms: _384  and  _385
REMARK  154  A    between atoms: _385  and  _386
REMARK  155  A    between atoms: _389  and  _391
REMARK  156  A    between atoms: _391  and  _392
REMARK  157  A    between atoms: _395  and  _397
REMARK  158  A    between atoms: _397  and  _398
REMARK  159  A    between atoms: _397  and  _400
REMARK  160  A    between atoms: _400  and  _401
REMARK  161  A    between atoms: _406  and  _408
REMARK  162  A    between atoms: _408  and  _409
REMARK  163  A    between atoms: _411  and  _413
REMARK  164  A    between atoms: _413  and  _414
REMARK  165  A    between atoms: _416  and  _418
REMARK  166  A    between atoms: _418  and  _419
REMARK  167  A    between atoms: _418  and  _421
REMARK  168  A    between atoms: _421  and  _422
REMARK  169  A    between atoms: _427  and  _428
REMARK  170  A    between atoms: _430  and  _432
REMARK  171  A    between atoms: _432  and  _433
REMARK  172  A    between atoms: _432  and  _435
REMARK  173  A    between atoms: _435  and  _436
REMARK  174  A    between atoms: _439  and  _441
REMARK  175  A    between atoms: _441  and  _442
REMARK  176  A    between atoms: _441  and  _444
REMARK  177  A    between atoms: _444  and  _445
REMARK  178  A    between atoms: _451  and  _453
REMARK  179  A    between atoms: _453  and  _454
REMARK  180  A    between atoms: _453  and  _456
REMARK  181  A    between atoms: _458  and  _460
REMARK  182  A    between atoms: _460  and  _461
REMARK  183  A    between atoms: _463  and  _465
REMARK  184  A    between atoms: _465  and  _466
REMARK  185  A    between atoms: _465  and  _468
REMARK  186  A    between atoms: _468  and  _469
REMARK  187  A    between atoms: _475  and  _477
REMARK  188  A    between atoms: _477  and  _478
REMARK  189  A    between atoms: _477  and  _480
REMARK  190  A    between atoms: _480  and  _481
REMARK  191  A    between atoms: _481  and  _482
REMARK  192  A    between atoms: _487  and  _489
REMARK  193  A    between atoms: _489  and  _490
REMARK  194  A    between atoms: _492  and  _494
REMARK  195  A    between atoms: _494  and  _495
REMARK  196  A    between atoms: _494  and  _497
REMARK  197  A    between atoms: _497  and  _498
REMARK  198  A    between atoms: _498  and  _499
REMARK  199  A    between atoms: _499  and  _500
REMARK  200  A    between atoms: _509  and  _511
REMARK  201  A    between atoms: _511  and  _512
REMARK  202  A    between atoms: _511  and  _514
REMARK  203  A    between atoms: _516  and  _518
REMARK  204  A    between atoms: _518  and  _519
REMARK  205  A    between atoms: _518  and  _521
REMARK  206  A    between atoms: _521  and  _522
REMARK  207  A    between atoms: _527  and  _529
REMARK  208  A    between atoms: _529  and  _530
REMARK  209  A    between atoms: _529  and  _532
REMARK  210  A    between atoms: _532  and  _533
REMARK  211  A    between atoms: _533  and  _534
REMARK  212  A    between atoms: _534  and  _535
REMARK  213  A    between atoms: _535  and  _536
REMARK  214  A    between atoms: _540  and  _542
REMARK  215  A    between atoms: _542  and  _543
REMARK  216  A    between atoms: _542  and  _545
REMARK  217  A    between atoms: _545  and  _546
REMARK  218  A    between atoms: _549  and  _551
REMARK  219  A    between atoms: _551  and  _552
REMARK  220  A    between atoms: _551  and  _554
REMARK  221  A    between atoms: _557  and  _559
REMARK  222  A    between atoms: _559  and  _560
REMARK  223  A    between atoms: _559  and  _562
REMARK  224  A    between atoms: _562  and  _563
REMARK  225  A    between atoms: _563  and  _565
REMARK  226  A    between atoms: _565  and  ZN_690
REMARK  227  A    between atoms: _566  and  _568
REMARK  228  A    between atoms: _568  and  _569
REMARK  229  A    between atoms: _568  and  _571
REMARK  230  A    between atoms: _571  and  _572
REMARK  231  A    between atoms: _572  and  ZN_690
REMARK  232  A    between atoms: _573  and  _575
REMARK  233  A    between atoms: _575  and  _576
REMARK  234  A    between atoms: _575  and  _578
REMARK  235  A    between atoms: _578  and  _579
REMARK  236  A    between atoms: _584  and  _585
REMARK  237  A    between atoms: _587  and  _589
REMARK  238  A    between atoms: _589  and  _590
REMARK  239  A    between atoms: _589  and  _592
REMARK  240  A    between atoms: _592  and  _593
REMARK  241  A    between atoms: _599  and  _601
REMARK  242  A    between atoms: _601  and  _602
REMARK  243  A    between atoms: _601  and  _604
REMARK  244  A    between atoms: _604  and  _605
REMARK  245  A    between atoms: _615  and  _617
REMARK  246  A    between atoms: _617  and  _618
REMARK  247  A    between atoms: _617  and  _620
REMARK  248  A    between atoms: _620  and  _621
REMARK  249  A    between atoms: _621  and  _622
REMARK  250  A    between atoms: _627  and  _629
REMARK  251  A    between atoms: _629  and  _630
REMARK  252  A    between atoms: _629  and  _632
REMARK  253  A    between atoms: _632  and  _633
REMARK  254  A    between atoms: _636  and  _638
REMARK  255  A    between atoms: _638  and  _639
REMARK  256  A    between atoms: _638  and  _641
REMARK  257  A    between atoms: _641  and  _642
REMARK  258  A    between atoms: _642  and  _643
REMARK  259  A    between atoms: _643  and  _644
REMARK  260  A    between atoms: _644  and  _645
REMARK  261  A    between atoms: _649  and  _651
REMARK  262  A    between atoms: _651  and  _652
REMARK  263  A    between atoms: _651  and  _654
REMARK  264  A    between atoms: _654  and  _655
REMARK  265  A    between atoms: _655  and  _656
REMARK  266  A    between atoms: _656  and  _657
REMARK  267  A    between atoms: _657  and  _658
REMARK  268  A    between atoms: _662  and  _664
REMARK  269  A    between atoms: _664  and  _665
REMARK  270  A    between atoms: _664  and  _667
REMARK  271  A    between atoms: _667  and  _668
REMARK  272  A    between atoms: _673  and  _674
REMARK  273  A    between atoms: _676  and  _678
REMARK  274  A    between atoms: _678  and  _679
REMARK  275  A    between atoms: _678  and  _681
REMARK  276  A    between atoms: _681  and  _682
REMARK  277  A    between atoms: _687  and  _688
REMARK                            x       y       z     vdW  Elec       q    Type
REMARK                         _______ _______ _______ _____ _____    ______ ____
ROOT
ATOM      1  O   HOH     1     199.588 125.068  37.981  0.00  0.00    +0.000 OA
ENDROOT
TORSDOF 0
REMARK  Name = ../refined-set-2016/1o1s/1o1s_pocket.pdb
REMARK  277 active torsions:
REMARK  status: ('A' for Active; 'I' for Inactive)
REMARK    1  A    between atoms: _1  and  _3
REMARK    2  A    between atoms: _3  and  _4
REMARK    3  A    between atoms: _7  and  _9
REMARK    4  A    between atoms: _9  and  _10
REMARK    5  A    between atoms: _9  and  _12
REMARK    6  A    between atoms: _12  and  _13
REMARK    7  A    between atoms: _18  and  _19
REMARK    8  A    between atoms: _21  and  _23
REMARK    9  A    between atoms: _23  and  _24
REMARK   10  A    between atoms: _23  and  _26
REMARK   11  A    between atoms: _26  and  _27
REMARK   12  A    between atoms: _27  and  _28
REMARK   13  A    between atoms: _28  and  _29
REMARK   14  A    between atoms: _29  and  _30
REMARK   15  A    between atoms: _34  and  _36
REMARK   16  A    between atoms: _36  and  _37
REMARK   17  A    between atoms: _36  and  _39
REMARK   18  A    between atoms: _39  and  _40
REMARK   19  A    between atoms: _45  and  _47
REMARK   20  A    between atoms: _47  and  _48
REMARK   21  A    between atoms: _47  and  _50
REMARK   22  A    between atoms: _50  and  _51
REMARK   23  A    between atoms: _56  and  _57
REMARK   24  A    between atoms: _59  and  _61
REMARK   25  A    between atoms: _61  and  _62
REMARK   26  A    between atoms: _61  and  _64
REMARK   27  A    between atoms: _64  and  _65
REMARK   28  A    between atoms: _65  and  _66
REMARK   29  A    between atoms: _71  and  _73
REMARK   30  A    between atoms: _73  and  _74
REMARK   31  A    between atoms: _73  and  _76
REMARK   32  A    between atoms: _76  and  _77
REMARK   33  A    between atoms: _80  and  _82
REMARK   34  A    between atoms: _82  and  _83
REMARK   35  A    between atoms: _82  and  _85
REMARK   36  A    between atoms: _85  and  _86
REMARK   37  A    between atoms: _86  and  _87
REMARK   38  A    between atoms: _87  and  _88
REMARK   39  A    between atoms: _88  and  _89
REMARK   40  A    between atoms: _93  and  _95
REMARK   41  A    between atoms: _95  and  _96
REMARK   42  A    between atoms: _95  and  _98
REMARK   43  A    between atoms: _98  and  _99
REMARK   44  A    between atoms: _104  and  _106
REMARK   45  A    between atoms: _106  and  _107
REMARK   46  A    between atoms: _106  and  _109
REMARK   47  A    between atoms: _109  and  _110
REMARK   48  A    between atoms: _115  and  _116
REMARK   49  A    between atoms: _118  and  _120
REMARK   50  A    between atoms: _120  and  _121
REMARK   51  A    between atoms: _120  and  _123
REMARK   52  A    between atoms: _123  and  _124
REMARK   53  A    between atoms: _129  and  _131
REMARK   54  A    between atoms: _131  and  _132
REMARK   55  A    between atoms: _135  and  _137
REMARK   56  A    between atoms: _137  and  _138
REMARK   57  A    between atoms: _137  and  _140
REMARK   58  A    between atoms: _140  and  _141
REMARK   59  A    between atoms: _141  and  _142
REMARK   60  A    between atoms: _147  and  _149
REMARK   61  A    between atoms: _149  and  _150
REMARK   62  A    between atoms: _149  and  _152
REMARK   63  A    between atoms: _152  and  _153
REMARK   64  A    between atoms: _155  and  _157
REMARK   65  A    between atoms: _157  and  _158
REMARK   66  A    between atoms: _157  and  _160
REMARK   67  A    between atoms: _160  and  _161
REMARK   68  A    between atoms: _164  and  _166
REMARK   69  A    between atoms: _166  and  _167
REMARK   70  A    between atoms: _170  and  _172
REMARK   71  A    between atoms: _172  and  _173
REMARK   72  A    between atoms: _172  and  _175
REMARK   73  A    between atoms: _175  and  _176
REMARK   74  A    between atoms: _178  and  _180
REMARK   75  A    between atoms: _180  and  _181
REMARK   76  A    between atoms: _180  and  _183
REMARK   77  A    between atoms: _183  and  _184
REMARK   78  A    between atoms: _194  and  _196
REMARK   79  A    between atoms: _196  and  _197
REMARK   80  A    between atoms: _196  and  _199
REMARK   81  A    between atoms: _199  and  _200
REMARK   82  A    between atoms: _210  and  _212
REMARK   83  A    between atoms: _212  and  _213
REMARK   84  A    between atoms: _212  and  _215
REMARK   85  A    between atoms: _215  and  _216
REMARK   86  A    between atoms: _221  and  _223
REMARK   87  A    between atoms: _223  and  _224
REMARK   88  A    between atoms: _223  and  _226
REMARK   89  A    between atoms: _226  and  _227
REMARK   90  A    between atoms: _230  and  _232
REMARK   91  A    between atoms: _232  and  _233
REMARK   92  A    between atoms: _237  and  _238
REMARK   93  A    between atoms: _243  and  _245
REMARK   94  A    between atoms: _245  and  _246
REMARK   95  A    between atoms: _245  and  _248
REMARK   96  A    between atoms: _248  and  _249
REMARK   97  A    between atoms: _252  and  _254
REMARK   98  A    between atoms: _254  and  _255
REMARK   99  A    between atoms: _254  and  _257
REMARK  100  A    between atoms: _257  and  _258
REMARK  101  A    between atoms: _263  and  _264
REMARK  102  A    between atoms: _266  and  _268
REMARK  103  A    between atoms: _268  and  _269
REMARK  104  A    between atoms: _272  and  _274
REMARK  105  A    between atoms: _274  and  _275
REMARK  106  A    between atoms: _274  and  _277
REMARK  107  A    between atoms: _277  and  _278
REMARK  108  A    between atoms: _278  and  _279
REMARK  109  A    between atoms: _281  and  _283
REMARK  110  A    between atoms: _283  and  _284
REMARK  111  A    between atoms: _283  and  _286
REMARK  112  A    between atoms: _286  and  _287
REMARK  113  A    between atoms: _292  and  _294
REMARK  114  A    between atoms: _294  and  _295
REMARK  115  A    between atoms: _294  and  _297
REMARK  116  A    between atoms: _297  and  _298
REMARK  117  A    between atoms: _298  and  _299
REMARK  118  A    between atoms: _302  and  _304
REMARK  119  A    between atoms: _304  and  _305
REMARK  120  A    between atoms: _304  and  _307
REMARK  121  A    between atoms: _307  and  _308
REMARK  122  A    between atoms: _311  and  _313
REMARK  123  A    between atoms: _313  and  _314
REMARK  124  A    between atoms: _313  and  _316
REMARK  125  A    between atoms: _319  and  _321
REMARK  126  A    between atoms: _321  and  _322
REMARK  127  A    between atoms: _321  and  _324
REMARK  128  A    between atoms: _324  and  _325
REMARK  129  A    between atoms: _325  and  _326
REMARK  130  A    between atoms: _326  and  _327
REMARK  131  A    between atoms: _336  and  _338
REMARK  132  A    between atoms: _338  and  _339
REMARK  133  A    between atoms: _338  and  _341
REMARK  134  A    between atoms: _341  and  _342
REMARK  135  A    between atoms: _344  and  _346
REMARK  136  A    between atoms: _346  and  _347
REMARK  137  A    between atoms: _346  and  _349
REMARK  138  A    between atoms: _349  and  _350
REMARK  139  A    between atoms: _355  and  _356
REMARK  140  A    between atoms: _358  and  _360
REMARK  141  A    between atoms: _360  and  _361
REMARK  142  A    between atoms: _360  and  _363
REMARK  143  A    between atoms: _365  and  _367
REMARK  144  A    between atoms: _367  and  _368
REMARK  145  A    between atoms: _370  and  _372
REMARK  146  A    between atoms: _372  and  _373
REMARK  147  A    between atoms: _372  and  _375
REMARK  148  A    between atoms: _375  and  _376
REMARK  149  A    between atoms: _376  and  _377
REMARK  150  A    between atoms: _379  and  _381
REMARK  151  A    between atoms: _381  and  _382
REMARK  152  A    between atoms: _381  and  _384
REMARK  153  A    between atoms: _384  and  _385
REMARK  154  A    between atoms: _385  and  _386
REMARK  155  A    between atoms: _389  and  _391
REMARK  156  A    between atoms: _391  and  _392
REMARK  157  A    between atoms: _395  and  _397
REMARK  158  A    between atoms: _397  and  _398
REMARK  159  A    between atoms: _397  and  _400
REMARK  160  A    between atoms: _400  and  _401
REMARK  161  A    between atoms: _406  and  _408
REMARK  162  A    between atoms: _408  and  _409
REMARK  163  A    between atoms: _411  and  _413
REMARK  164  A    between atoms: _413  and  _414
REMARK  165  A    between atoms: _416  and  _418
REMARK  166  A    between atoms: _418  and  _419
REMARK  167  A    between atoms: _418  and  _421
REMARK  168  A    between atoms: _421  and  _422
REMARK  169  A    between atoms: _427  and  _428
REMARK  170  A    between atoms: _430  and  _432
REMARK  171  A    between atoms: _432  and  _433
REMARK  172  A    between atoms: _432  and  _435
REMARK  173  A    between atoms: _435  and  _436
REMARK  174  A    between atoms: _439  and  _441
REMARK  175  A    between atoms: _441  and  _442
REMARK  176  A    between atoms: _441  and  _444
REMARK  177  A    between atoms: _444  and  _445
REMARK  178  A    between atoms: _451  and  _453
REMARK  179  A    between atoms: _453  and  _454
REMARK  180  A    between atoms: _453  and  _456
REMARK  181  A    between atoms: _458  and  _460
REMARK  182  A    between atoms: _460  and  _461
REMARK  183  A    between atoms: _463  and  _465
REMARK  184  A    between atoms: _465  and  _466
REMARK  185  A    between atoms: _465  and  _468
REMARK  186  A    between atoms: _468  and  _469
REMARK  187  A    between atoms: _475  and  _477
REMARK  188  A    between atoms: _477  and  _478
REMARK  189  A    between atoms: _477  and  _480
REMARK  190  A    between atoms: _480  and  _481
REMARK  191  A    between atoms: _481  and  _482
REMARK  192  A    between atoms: _487  and  _489
REMARK  193  A    between atoms: _489  and  _490
REMARK  194  A    between atoms: _492  and  _494
REMARK  195  A    between atoms: _494  and  _495
REMARK  196  A    between atoms: _494  and  _497
REMARK  197  A    between atoms: _497  and  _498
REMARK  198  A    between atoms: _498  and  _499
REMARK  199  A    between atoms: _499  and  _500
REMARK  200  A    between atoms: _509  and  _511
REMARK  201  A    between atoms: _511  and  _512
REMARK  202  A    between atoms: _511  and  _514
REMARK  203  A    between atoms: _516  and  _518
REMARK  204  A    between atoms: _518  and  _519
REMARK  205  A    between atoms: _518  and  _521
REMARK  206  A    between atoms: _521  and  _522
REMARK  207  A    between atoms: _527  and  _529
REMARK  208  A    between atoms: _529  and  _530
REMARK  209  A    between atoms: _529  and  _532
REMARK  210  A    between atoms: _532  and  _533
REMARK  211  A    between atoms: _533  and  _534
REMARK  212  A    between atoms: _534  and  _535
REMARK  213  A    between atoms: _535  and  _536
REMARK  214  A    between atoms: _540  and  _542
REMARK  215  A    between atoms: _542  and  _543
REMARK  216  A    between atoms: _542  and  _545
REMARK  217  A    between atoms: _545  and  _546
REMARK  218  A    between atoms: _549  and  _551
REMARK  219  A    between atoms: _551  and  _552
REMARK  220  A    between atoms: _551  and  _554
REMARK  221  A    between atoms: _557  and  _559
REMARK  222  A    between atoms: _559  and  _560
REMARK  223  A    between atoms: _559  and  _562
REMARK  224  A    between atoms: _562  and  _563
REMARK  225  A    between atoms: _563  and  _565
REMARK  226  A    between atoms: _565  and  ZN_690
REMARK  227  A    between atoms: _566  and  _568
REMARK  228  A    between atoms: _568  and  _569
REMARK  229  A    between atoms: _568  and  _571
REMARK  230  A    between atoms: _571  and  _572
REMARK  231  A    between atoms: _572  and  ZN_690
REMARK  232  A    between atoms: _573  and  _575
REMARK  233  A    between atoms: _575  and  _576
REMARK  234  A    between atoms: _575  and  _578
REMARK  235  A    between atoms: _578  and  _579
REMARK  236  A    between atoms: _584  and  _585
REMARK  237  A    between atoms: _587  and  _589
REMARK  238  A    between atoms: _589  and  _590
REMARK  239  A    between atoms: _589  and  _592
REMARK  240  A    between atoms: _592  and  _593
REMARK  241  A    between atoms: _599  and  _601
REMARK  242  A    between atoms: _601  and  _602
REMARK  243  A    between atoms: _601  and  _604
REMARK  244  A    between atoms: _604  and  _605
REMARK  245  A    between atoms: _615  and  _617
REMARK  246  A    between atoms: _617  and  _618
REMARK  247  A    between atoms: _617  and  _620
REMARK  248  A    between atoms: _620  and  _621
REMARK  249  A    between atoms: _621  and  _622
REMARK  250  A    between atoms: _627  and  _629
REMARK  251  A    between atoms: _629  and  _630
REMARK  252  A    between atoms: _629  and  _632
REMARK  253  A    between atoms: _632  and  _633
REMARK  254  A    between atoms: _636  and  _638
REMARK  255  A    between atoms: _638  and  _639
REMARK  256  A    between atoms: _638  and  _641
REMARK  257  A    between atoms: _641  and  _642
REMARK  258  A    between atoms: _642  and  _643
REMARK  259  A    between atoms: _643  and  _644
REMARK  260  A    between atoms: _644  and  _645
REMARK  261  A    between atoms: _649  and  _651
REMARK  262  A    between atoms: _651  and  _652
REMARK  263  A    between atoms: _651  and  _654
REMARK  264  A    between atoms: _654  and  _655
REMARK  265  A    between atoms: _655  and  _656
REMARK  266  A    between atoms: _656  and  _657
REMARK  267  A    between atoms: _657  and  _658
REMARK  268  A    between atoms: _662  and  _664
REMARK  269  A    between atoms: _664  and  _665
REMARK  270  A    between atoms: _664  and  _667
REMARK  271  A    between atoms: _667  and  _668
REMARK  272  A    between atoms: _673  and  _674
REMARK  273  A    between atoms: _676  and  _678
REMARK  274  A    between atoms: _678  and  _679
REMARK  275  A    between atoms: _678  and  _681
REMARK  276  A    between atoms: _681  and  _682
REMARK  277  A    between atoms: _687  and  _688
REMARK                            x       y       z     vdW  Elec       q    Type
REMARK                         _______ _______ _______ _____ _____    ______ ____
ROOT
ATOM      1  O   HOH     1     182.261 127.954  27.046  0.00  0.00    +0.000 OA
ENDROOT
TORSDOF 0
REMARK  Name = ../refined-set-2016/1o1s/1o1s_pocket.pdb
REMARK  277 active torsions:
REMARK  status: ('A' for Active; 'I' for Inactive)
REMARK    1  A    between atoms: _1  and  _3
REMARK    2  A    between atoms: _3  and  _4
REMARK    3  A    between atoms: _7  and  _9
REMARK    4  A    between atoms: _9  and  _10
REMARK    5  A    between atoms: _9  and  _12
REMARK    6  A    between atoms: _12  and  _13
REMARK    7  A    between atoms: _18  and  _19
REMARK    8  A    between atoms: _21  and  _23
REMARK    9  A    between atoms: _23  and  _24
REMARK   10  A    between atoms: _23  and  _26
REMARK   11  A    between atoms: _26  and  _27
REMARK   12  A    between atoms: _27  and  _28
REMARK   13  A    between atoms: _28  and  _29
REMARK   14  A    between atoms: _29  and  _30
REMARK   15  A    between atoms: _34  and  _36
REMARK   16  A    between atoms: _36  and  _37
REMARK   17  A    between atoms: _36  and  _39
REMARK   18  A    between atoms: _39  and  _40
REMARK   19  A    between atoms: _45  and  _47
REMARK   20  A    between atoms: _47  and  _48
REMARK   21  A    between atoms: _47  and  _50
REMARK   22  A    between atoms: _50  and  _51
REMARK   23  A    between atoms: _56  and  _57
REMARK   24  A    between atoms: _59  and  _61
REMARK   25  A    between atoms: _61  and  _62
REMARK   26  A    between atoms: _61  and  _64
REMARK   27  A    between atoms: _64  and  _65
REMARK   28  A    between atoms: _65  and  _66
REMARK   29  A    between atoms: _71  and  _73
REMARK   30  A    between atoms: _73  and  _74
REMARK   31  A    between atoms: _73  and  _76
REMARK   32  A    between atoms: _76  and  _77
REMARK   33  A    between atoms: _80  and  _82
REMARK   34  A    between atoms: _82  and  _83
REMARK   35  A    between atoms: _82  and  _85
REMARK   36  A    between atoms: _85  and  _86
REMARK   37  A    between atoms: _86  and  _87
REMARK   38  A    between atoms: _87  and  _88
REMARK   39  A    between atoms: _88  and  _89
REMARK   40  A    between atoms: _93  and  _95
REMARK   41  A    between atoms: _95  and  _96
REMARK   42  A    between atoms: _95  and  _98
REMARK   43  A    between atoms: _98  and  _99
REMARK   44  A    between atoms: _104  and  _106
REMARK   45  A    between atoms: _106  and  _107
REMARK   46  A    between atoms: _106  and  _109
REMARK   47  A    between atoms: _109  and  _110
REMARK   48  A    between atoms: _115  and  _116
REMARK   49  A    between atoms: _118  and  _120
REMARK   50  A    between atoms: _120  and  _121
REMARK   51  A    between atoms: _120  and  _123
REMARK   52  A    between atoms: _123  and  _124
REMARK   53  A    between atoms: _129  and  _131
REMARK   54  A    between atoms: _131  and  _132
REMARK   55  A    between atoms: _135  and  _137
REMARK   56  A    between atoms: _137  and  _138
REMARK   57  A    between atoms: _137  and  _140
REMARK   58  A    between atoms: _140  and  _141
REMARK   59  A    between atoms: _141  and  _142
REMARK   60  A    between atoms: _147  and  _149
REMARK   61  A    between atoms: _149  and  _150
REMARK   62  A    between atoms: _149  and  _152
REMARK   63  A    between atoms: _152  and  _153
REMARK   64  A    between atoms: _155  and  _157
REMARK   65  A    between atoms: _157  and  _158
REMARK   66  A    between atoms: _157  and  _160
REMARK   67  A    between atoms: _160  and  _161
REMARK   68  A    between atoms: _164  and  _166
REMARK   69  A    between atoms: _166  and  _167
REMARK   70  A    between atoms: _170  and  _172
REMARK   71  A    between atoms: _172  and  _173
REMARK   72  A    between atoms: _172  and  _175
REMARK   73  A    between atoms: _175  and  _176
REMARK   74  A    between atoms: _178  and  _180
REMARK   75  A    between atoms: _180  and  _181
REMARK   76  A    between atoms: _180  and  _183
REMARK   77  A    between atoms: _183  and  _184
REMARK   78  A    between atoms: _194  and  _196
REMARK   79  A    between atoms: _196  and  _197
REMARK   80  A    between atoms: _196  and  _199
REMARK   81  A    between atoms: _199  and  _200
REMARK   82  A    between atoms: _210  and  _212
REMARK   83  A    between atoms: _212  and  _213
REMARK   84  A    between atoms: _212  and  _215
REMARK   85  A    between atoms: _215  and  _216
REMARK   86  A    between atoms: _221  and  _223
REMARK   87  A    between atoms: _223  and  _224
REMARK   88  A    between atoms: _223  and  _226
REMARK   89  A    between atoms: _226  and  _227
REMARK   90  A    between atoms: _230  and  _232
REMARK   91  A    between atoms: _232  and  _233
REMARK   92  A    between atoms: _237  and  _238
REMARK   93  A    between atoms: _243  and  _245
REMARK   94  A    between atoms: _245  and  _246
REMARK   95  A    between atoms: _245  and  _248
REMARK   96  A    between atoms: _248  and  _249
REMARK   97  A    between atoms: _252  and  _254
REMARK   98  A    between atoms: _254  and  _255
REMARK   99  A    between atoms: _254  and  _257
REMARK  100  A    between atoms: _257  and  _258
REMARK  101  A    between atoms: _263  and  _264
REMARK  102  A    between atoms: _266  and  _268
REMARK  103  A    between atoms: _268  and  _269
REMARK  104  A    between atoms: _272  and  _274
REMARK  105  A    between atoms: _274  and  _275
REMARK  106  A    between atoms: _274  and  _277
REMARK  107  A    between atoms: _277  and  _278
REMARK  108  A    between atoms: _278  and  _279
REMARK  109  A    between atoms: _281  and  _283
REMARK  110  A    between atoms: _283  and  _284
REMARK  111  A    between atoms: _283  and  _286
REMARK  112  A    between atoms: _286  and  _287
REMARK  113  A    between atoms: _292  and  _294
REMARK  114  A    between atoms: _294  and  _295
REMARK  115  A    between atoms: _294  and  _297
REMARK  116  A    between atoms: _297  and  _298
REMARK  117  A    between atoms: _298  and  _299
REMARK  118  A    between atoms: _302  and  _304
REMARK  119  A    between atoms: _304  and  _305
REMARK  120  A    between atoms: _304  and  _307
REMARK  121  A    between atoms: _307  and  _308
REMARK  122  A    between atoms: _311  and  _313
REMARK  123  A    between atoms: _313  and  _314
REMARK  124  A    between atoms: _313  and  _316
REMARK  125  A    between atoms: _319  and  _321
REMARK  126  A    between atoms: _321  and  _322
REMARK  127  A    between atoms: _321  and  _324
REMARK  128  A    between atoms: _324  and  _325
REMARK  129  A    between atoms: _325  and  _326
REMARK  130  A    between atoms: _326  and  _327
REMARK  131  A    between atoms: _336  and  _338
REMARK  132  A    between atoms: _338  and  _339
REMARK  133  A    between atoms: _338  and  _341
REMARK  134  A    between atoms: _341  and  _342
REMARK  135  A    between atoms: _344  and  _346
REMARK  136  A    between atoms: _346  and  _347
REMARK  137  A    between atoms: _346  and  _349
REMARK  138  A    between atoms: _349  and  _350
REMARK  139  A    between atoms: _355  and  _356
REMARK  140  A    between atoms: _358  and  _360
REMARK  141  A    between atoms: _360  and  _361
REMARK  142  A    between atoms: _360  and  _363
REMARK  143  A    between atoms: _365  and  _367
REMARK  144  A    between atoms: _367  and  _368
REMARK  145  A    between atoms: _370  and  _372
REMARK  146  A    between atoms: _372  and  _373
REMARK  147  A    between atoms: _372  and  _375
REMARK  148  A    between atoms: _375  and  _376
REMARK  149  A    between atoms: _376  and  _377
REMARK  150  A    between atoms: _379  and  _381
REMARK  151  A    between atoms: _381  and  _382
REMARK  152  A    between atoms: _381  and  _384
REMARK  153  A    between atoms: _384  and  _385
REMARK  154  A    between atoms: _385  and  _386
REMARK  155  A    between atoms: _389  and  _391
REMARK  156  A    between atoms: _391  and  _392
REMARK  157  A    between atoms: _395  and  _397
REMARK  158  A    between atoms: _397  and  _398
REMARK  159  A    between atoms: _397  and  _400
REMARK  160  A    between atoms: _400  and  _401
REMARK  161  A    between atoms: _406  and  _408
REMARK  162  A    between atoms: _408  and  _409
REMARK  163  A    between atoms: _411  and  _413
REMARK  164  A    between atoms: _413  and  _414
REMARK  165  A    between atoms: _416  and  _418
REMARK  166  A    between atoms: _418  and  _419
REMARK  167  A    between atoms: _418  and  _421
REMARK  168  A    between atoms: _421  and  _422
REMARK  169  A    between atoms: _427  and  _428
REMARK  170  A    between atoms: _430  and  _432
REMARK  171  A    between atoms: _432  and  _433
REMARK  172  A    between atoms: _432  and  _435
REMARK  173  A    between atoms: _435  and  _436
REMARK  174  A    between atoms: _439  and  _441
REMARK  175  A    between atoms: _441  and  _442
REMARK  176  A    between atoms: _441  and  _444
REMARK  177  A    between atoms: _444  and  _445
REMARK  178  A    between atoms: _451  and  _453
REMARK  179  A    between atoms: _453  and  _454
REMARK  180  A    between atoms: _453  and  _456
REMARK  181  A    between atoms: _458  and  _460
REMARK  182  A    between atoms: _460  and  _461
REMARK  183  A    between atoms: _463  and  _465
REMARK  184  A    between atoms: _465  and  _466
REMARK  185  A    between atoms: _465  and  _468
REMARK  186  A    between atoms: _468  and  _469
REMARK  187  A    between atoms: _475  and  _477
REMARK  188  A    between atoms: _477  and  _478
REMARK  189  A    between atoms: _477  and  _480
REMARK  190  A    between atoms: _480  and  _481
REMARK  191  A    between atoms: _481  and  _482
REMARK  192  A    between atoms: _487  and  _489
REMARK  193  A    between atoms: _489  and  _490
REMARK  194  A    between atoms: _492  and  _494
REMARK  195  A    between atoms: _494  and  _495
REMARK  196  A    between atoms: _494  and  _497
REMARK  197  A    between atoms: _497  and  _498
REMARK  198  A    between atoms: _498  and  _499
REMARK  199  A    between atoms: _499  and  _500
REMARK  200  A    between atoms: _509  and  _511
REMARK  201  A    between atoms: _511  and  _512
REMARK  202  A    between atoms: _511  and  _514
REMARK  203  A    between atoms: _516  and  _518
REMARK  204  A    between atoms: _518  and  _519
REMARK  205  A    between atoms: _518  and  _521
REMARK  206  A    between atoms: _521  and  _522
REMARK  207  A    between atoms: _527  and  _529
REMARK  208  A    between atoms: _529  and  _530
REMARK  209  A    between atoms: _529  and  _532
REMARK  210  A    between atoms: _532  and  _533
REMARK  211  A    between atoms: _533  and  _534
REMARK  212  A    between atoms: _534  and  _535
REMARK  213  A    between atoms: _535  and  _536
REMARK  214  A    between atoms: _540  and  _542
REMARK  215  A    between atoms: _542  and  _543
REMARK  216  A    between atoms: _542  and  _545
REMARK  217  A    between atoms: _545  and  _546
REMARK  218  A    between atoms: _549  and  _551
REMARK  219  A    between atoms: _551  and  _552
REMARK  220  A    between atoms: _551  and  _554
REMARK  221  A    between atoms: _557  and  _559
REMARK  222  A    between atoms: _559  and  _560
REMARK  223  A    between atoms: _559  and  _562
REMARK  224  A    between atoms: _562  and  _563
REMARK  225  A    between atoms: _563  and  _565
REMARK  226  A    between atoms: _565  and  ZN_690
REMARK  227  A    between atoms: _566  and  _568
REMARK  228  A    between atoms: _568  and  _569
REMARK  229  A    between atoms: _568  and  _571
REMARK  230  A    between atoms: _571  and  _572
REMARK  231  A    between atoms: _572  and  ZN_690
REMARK  232  A    between atoms: _573  and  _575
REMARK  233  A    between atoms: _575  and  _576
REMARK  234  A    between atoms: _575  and  _578
REMARK  235  A    between atoms: _578  and  _579
REMARK  236  A    between atoms: _584  and  _585
REMARK  237  A    between atoms: _587  and  _589
REMARK  238  A    between atoms: _589  and  _590
REMARK  239  A    between atoms: _589  and  _592
REMARK  240  A    between atoms: _592  and  _593
REMARK  241  A    between atoms: _599  and  _601
REMARK  242  A    between atoms: _601  and  _602
REMARK  243  A    between atoms: _601  and  _604
REMARK  244  A    between atoms: _604  and  _605
REMARK  245  A    between atoms: _615  and  _617
REMARK  246  A    between atoms: _617  and  _618
REMARK  247  A    between atoms: _617  and  _620
REMARK  248  A    between atoms: _620  and  _621
REMARK  249  A    between atoms: _621  and  _622
REMARK  250  A    between atoms: _627  and  _629
REMARK  251  A    between atoms: _629  and  _630
REMARK  252  A    between atoms: _629  and  _632
REMARK  253  A    between atoms: _632  and  _633
REMARK  254  A    between atoms: _636  and  _638
REMARK  255  A    between atoms: _638  and  _639
REMARK  256  A    between atoms: _638  and  _641
REMARK  257  A    between atoms: _641  and  _642
REMARK  258  A    between atoms: _642  and  _643
REMARK  259  A    between atoms: _643  and  _644
REMARK  260  A    between atoms: _644  and  _645
REMARK  261  A    between atoms: _649  and  _651
REMARK  262  A    between atoms: _651  and  _652
REMARK  263  A    between atoms: _651  and  _654
REMARK  264  A    between atoms: _654  and  _655
REMARK  265  A    between atoms: _655  and  _656
REMARK  266  A    between atoms: _656  and  _657
REMARK  267  A    between atoms: _657  and  _658
REMARK  268  A    between atoms: _662  and  _664
REMARK  269  A    between atoms: _664  and  _665
REMARK  270  A    between atoms: _664  and  _667
REMARK  271  A    between atoms: _667  and  _668
REMARK  272  A    between atoms: _673  and  _674
REMARK  273  A    between atoms: _676  and  _678
REMARK  274  A    between atoms: _678  and  _679
REMARK  275  A    between atoms: _678  and  _681
REMARK  276  A    between atoms: _681  and  _682
REMARK  277  A    between atoms: _687  and  _688
REMARK                            x       y       z     vdW  Elec       q    Type
REMARK                         _______ _______ _______ _____ _____    ______ ____
ROOT
ATOM      1  O   HOH     1     179.910 129.060  26.885  0.00  0.00    +0.000 OA
ENDROOT
TORSDOF 0
REMARK  Name = ../refined-set-2016/1o1s/1o1s_pocket.pdb
REMARK  277 active torsions:
REMARK  status: ('A' for Active; 'I' for Inactive)
REMARK    1  A    between atoms: _1  and  _3
REMARK    2  A    between atoms: _3  and  _4
REMARK    3  A    between atoms: _7  and  _9
REMARK    4  A    between atoms: _9  and  _10
REMARK    5  A    between atoms: _9  and  _12
REMARK    6  A    between atoms: _12  and  _13
REMARK    7  A    between atoms: _18  and  _19
REMARK    8  A    between atoms: _21  and  _23
REMARK    9  A    between atoms: _23  and  _24
REMARK   10  A    between atoms: _23  and  _26
REMARK   11  A    between atoms: _26  and  _27
REMARK   12  A    between atoms: _27  and  _28
REMARK   13  A    between atoms: _28  and  _29
REMARK   14  A    between atoms: _29  and  _30
REMARK   15  A    between atoms: _34  and  _36
REMARK   16  A    between atoms: _36  and  _37
REMARK   17  A    between atoms: _36  and  _39
REMARK   18  A    between atoms: _39  and  _40
REMARK   19  A    between atoms: _45  and  _47
REMARK   20  A    between atoms: _47  and  _48
REMARK   21  A    between atoms: _47  and  _50
REMARK   22  A    between atoms: _50  and  _51
REMARK   23  A    between atoms: _56  and  _57
REMARK   24  A    between atoms: _59  and  _61
REMARK   25  A    between atoms: _61  and  _62
REMARK   26  A    between atoms: _61  and  _64
REMARK   27  A    between atoms: _64  and  _65
REMARK   28  A    between atoms: _65  and  _66
REMARK   29  A    between atoms: _71  and  _73
REMARK   30  A    between atoms: _73  and  _74
REMARK   31  A    between atoms: _73  and  _76
REMARK   32  A    between atoms: _76  and  _77
REMARK   33  A    between atoms: _80  and  _82
REMARK   34  A    between atoms: _82  and  _83
REMARK   35  A    between atoms: _82  and  _85
REMARK   36  A    between atoms: _85  and  _86
REMARK   37  A    between atoms: _86  and  _87
REMARK   38  A    between atoms: _87  and  _88
REMARK   39  A    between atoms: _88  and  _89
REMARK   40  A    between atoms: _93  and  _95
REMARK   41  A    between atoms: _95  and  _96
REMARK   42  A    between atoms: _95  and  _98
REMARK   43  A    between atoms: _98  and  _99
REMARK   44  A    between atoms: _104  and  _106
REMARK   45  A    between atoms: _106  and  _107
REMARK   46  A    between atoms: _106  and  _109
REMARK   47  A    between atoms: _109  and  _110
REMARK   48  A    between atoms: _115  and  _116
REMARK   49  A    between atoms: _118  and  _120
REMARK   50  A    between atoms: _120  and  _121
REMARK   51  A    between atoms: _120  and  _123
REMARK   52  A    between atoms: _123  and  _124
REMARK   53  A    between atoms: _129  and  _131
REMARK   54  A    between atoms: _131  and  _132
REMARK   55  A    between atoms: _135  and  _137
REMARK   56  A    between atoms: _137  and  _138
REMARK   57  A    between atoms: _137  and  _140
REMARK   58  A    between atoms: _140  and  _141
REMARK   59  A    between atoms: _141  and  _142
REMARK   60  A    between atoms: _147  and  _149
REMARK   61  A    between atoms: _149  and  _150
REMARK   62  A    between atoms: _149  and  _152
REMARK   63  A    between atoms: _152  and  _153
REMARK   64  A    between atoms: _155  and  _157
REMARK   65  A    between atoms: _157  and  _158
REMARK   66  A    between atoms: _157  and  _160
REMARK   67  A    between atoms: _160  and  _161
REMARK   68  A    between atoms: _164  and  _166
REMARK   69  A    between atoms: _166  and  _167
REMARK   70  A    between atoms: _170  and  _172
REMARK   71  A    between atoms: _172  and  _173
REMARK   72  A    between atoms: _172  and  _175
REMARK   73  A    between atoms: _175  and  _176
REMARK   74  A    between atoms: _178  and  _180
REMARK   75  A    between atoms: _180  and  _181
REMARK   76  A    between atoms: _180  and  _183
REMARK   77  A    between atoms: _183  and  _184
REMARK   78  A    between atoms: _194  and  _196
REMARK   79  A    between atoms: _196  and  _197
REMARK   80  A    between atoms: _196  and  _199
REMARK   81  A    between atoms: _199  and  _200
REMARK   82  A    between atoms: _210  and  _212
REMARK   83  A    between atoms: _212  and  _213
REMARK   84  A    between atoms: _212  and  _215
REMARK   85  A    between atoms: _215  and  _216
REMARK   86  A    between atoms: _221  and  _223
REMARK   87  A    between atoms: _223  and  _224
REMARK   88  A    between atoms: _223  and  _226
REMARK   89  A    between atoms: _226  and  _227
REMARK   90  A    between atoms: _230  and  _232
REMARK   91  A    between atoms: _232  and  _233
REMARK   92  A    between atoms: _237  and  _238
REMARK   93  A    between atoms: _243  and  _245
REMARK   94  A    between atoms: _245  and  _246
REMARK   95  A    between atoms: _245  and  _248
REMARK   96  A    between atoms: _248  and  _249
REMARK   97  A    between atoms: _252  and  _254
REMARK   98  A    between atoms: _254  and  _255
REMARK   99  A    between atoms: _254  and  _257
REMARK  100  A    between atoms: _257  and  _258
REMARK  101  A    between atoms: _263  and  _264
REMARK  102  A    between atoms: _266  and  _268
REMARK  103  A    between atoms: _268  and  _269
REMARK  104  A    between atoms: _272  and  _274
REMARK  105  A    between atoms: _274  and  _275
REMARK  106  A    between atoms: _274  and  _277
REMARK  107  A    between atoms: _277  and  _278
REMARK  108  A    between atoms: _278  and  _279
REMARK  109  A    between atoms: _281  and  _283
REMARK  110  A    between atoms: _283  and  _284
REMARK  111  A    between atoms: _283  and  _286
REMARK  112  A    between atoms: _286  and  _287
REMARK  113  A    between atoms: _292  and  _294
REMARK  114  A    between atoms: _294  and  _295
REMARK  115  A    between atoms: _294  and  _297
REMARK  116  A    between atoms: _297  and  _298
REMARK  117  A    between atoms: _298  and  _299
REMARK  118  A    between atoms: _302  and  _304
REMARK  119  A    between atoms: _304  and  _305
REMARK  120  A    between atoms: _304  and  _307
REMARK  121  A    between atoms: _307  and  _308
REMARK  122  A    between atoms: _311  and  _313
REMARK  123  A    between atoms: _313  and  _314
REMARK  124  A    between atoms: _313  and  _316
REMARK  125  A    between atoms: _319  and  _321
REMARK  126  A    between atoms: _321  and  _322
REMARK  127  A    between atoms: _321  and  _324
REMARK  128  A    between atoms: _324  and  _325
REMARK  129  A    between atoms: _325  and  _326
REMARK  130  A    between atoms: _326  and  _327
REMARK  131  A    between atoms: _336  and  _338
REMARK  132  A    between atoms: _338  and  _339
REMARK  133  A    between atoms: _338  and  _341
REMARK  134  A    between atoms: _341  and  _342
REMARK  135  A    between atoms: _344  and  _346
REMARK  136  A    between atoms: _346  and  _347
REMARK  137  A    between atoms: _346  and  _349
REMARK  138  A    between atoms: _349  and  _350
REMARK  139  A    between atoms: _355  and  _356
REMARK  140  A    between atoms: _358  and  _360
REMARK  141  A    between atoms: _360  and  _361
REMARK  142  A    between atoms: _360  and  _363
REMARK  143  A    between atoms: _365  and  _367
REMARK  144  A    between atoms: _367  and  _368
REMARK  145  A    between atoms: _370  and  _372
REMARK  146  A    between atoms: _372  and  _373
REMARK  147  A    between atoms: _372  and  _375
REMARK  148  A    between atoms: _375  and  _376
REMARK  149  A    between atoms: _376  and  _377
REMARK  150  A    between atoms: _379  and  _381
REMARK  151  A    between atoms: _381  and  _382
REMARK  152  A    between atoms: _381  and  _384
REMARK  153  A    between atoms: _384  and  _385
REMARK  154  A    between atoms: _385  and  _386
REMARK  155  A    between atoms: _389  and  _391
REMARK  156  A    between atoms: _391  and  _392
REMARK  157  A    between atoms: _395  and  _397
REMARK  158  A    between atoms: _397  and  _398
REMARK  159  A    between atoms: _397  and  _400
REMARK  160  A    between atoms: _400  and  _401
REMARK  161  A    between atoms: _406  and  _408
REMARK  162  A    between atoms: _408  and  _409
REMARK  163  A    between atoms: _411  and  _413
REMARK  164  A    between atoms: _413  and  _414
REMARK  165  A    between atoms: _416  and  _418
REMARK  166  A    between atoms: _418  and  _419
REMARK  167  A    between atoms: _418  and  _421
REMARK  168  A    between atoms: _421  and  _422
REMARK  169  A    between atoms: _427  and  _428
REMARK  170  A    between atoms: _430  and  _432
REMARK  171  A    between atoms: _432  and  _433
REMARK  172  A    between atoms: _432  and  _435
REMARK  173  A    between atoms: _435  and  _436
REMARK  174  A    between atoms: _439  and  _441
REMARK  175  A    between atoms: _441  and  _442
REMARK  176  A    between atoms: _441  and  _444
REMARK  177  A    between atoms: _444  and  _445
REMARK  178  A    between atoms: _451  and  _453
REMARK  179  A    between atoms: _453  and  _454
REMARK  180  A    between atoms: _453  and  _456
REMARK  181  A    between atoms: _458  and  _460
REMARK  182  A    between atoms: _460  and  _461
REMARK  183  A    between atoms: _463  and  _465
REMARK  184  A    between atoms: _465  and  _466
REMARK  185  A    between atoms: _465  and  _468
REMARK  186  A    between atoms: _468  and  _469
REMARK  187  A    between atoms: _475  and  _477
REMARK  188  A    between atoms: _477  and  _478
REMARK  189  A    between atoms: _477  and  _480
REMARK  190  A    between atoms: _480  and  _481
REMARK  191  A    between atoms: _481  and  _482
REMARK  192  A    between atoms: _487  and  _489
REMARK  193  A    between atoms: _489  and  _490
REMARK  194  A    between atoms: _492  and  _494
REMARK  195  A    between atoms: _494  and  _495
REMARK  196  A    between atoms: _494  and  _497
REMARK  197  A    between atoms: _497  and  _498
REMARK  198  A    between atoms: _498  and  _499
REMARK  199  A    between atoms: _499  and  _500
REMARK  200  A    between atoms: _509  and  _511
REMARK  201  A    between atoms: _511  and  _512
REMARK  202  A    between atoms: _511  and  _514
REMARK  203  A    between atoms: _516  and  _518
REMARK  204  A    between atoms: _518  and  _519
REMARK  205  A    between atoms: _518  and  _521
REMARK  206  A    between atoms: _521  and  _522
REMARK  207  A    between atoms: _527  and  _529
REMARK  208  A    between atoms: _529  and  _530
REMARK  209  A    between atoms: _529  and  _532
REMARK  210  A    between atoms: _532  and  _533
REMARK  211  A    between atoms: _533  and  _534
REMARK  212  A    between atoms: _534  and  _535
REMARK  213  A    between atoms: _535  and  _536
REMARK  214  A    between atoms: _540  and  _542
REMARK  215  A    between atoms: _542  and  _543
REMARK  216  A    between atoms: _542  and  _545
REMARK  217  A    between atoms: _545  and  _546
REMARK  218  A    between atoms: _549  and  _551
REMARK  219  A    between atoms: _551  and  _552
REMARK  220  A    between atoms: _551  and  _554
REMARK  221  A    between atoms: _557  and  _559
REMARK  222  A    between atoms: _559  and  _560
REMARK  223  A    between atoms: _559  and  _562
REMARK  224  A    between atoms: _562  and  _563
REMARK  225  A    between atoms: _563  and  _565
REMARK  226  A    between atoms: _565  and  ZN_690
REMARK  227  A    between atoms: _566  and  _568
REMARK  228  A    between atoms: _568  and  _569
REMARK  229  A    between atoms: _568  and  _571
REMARK  230  A    between atoms: _571  and  _572
REMARK  231  A    between atoms: _572  and  ZN_690
REMARK  232  A    between atoms: _573  and  _575
REMARK  233  A    between atoms: _575  and  _576
REMARK  234  A    between atoms: _575  and  _578
REMARK  235  A    between atoms: _578  and  _579
REMARK  236  A    between atoms: _584  and  _585
REMARK  237  A    between atoms: _587  and  _589
REMARK  238  A    between atoms: _589  and  _590
REMARK  239  A    between atoms: _589  and  _592
REMARK  240  A    between atoms: _592  and  _593
REMARK  241  A    between atoms: _599  and  _601
REMARK  242  A    between atoms: _601  and  _602
REMARK  243  A    between atoms: _601  and  _604
REMARK  244  A    between atoms: _604  and  _605
REMARK  245  A    between atoms: _615  and  _617
REMARK  246  A    between atoms: _617  and  _618
REMARK  247  A    between atoms: _617  and  _620
REMARK  248  A    between atoms: _620  and  _621
REMARK  249  A    between atoms: _621  and  _622
REMARK  250  A    between atoms: _627  and  _629
REMARK  251  A    between atoms: _629  and  _630
REMARK  252  A    between atoms: _629  and  _632
REMARK  253  A    between atoms: _632  and  _633
REMARK  254  A    between atoms: _636  and  _638
REMARK  255  A    between atoms: _638  and  _639
REMARK  256  A    between atoms: _638  and  _641
REMARK  257  A    between atoms: _641  and  _642
REMARK  258  A    between atoms: _642  and  _643
REMARK  259  A    between atoms: _643  and  _644
REMARK  260  A    between atoms: _644  and  _645
REMARK  261  A    between atoms: _649  and  _651
REMARK  262  A    between atoms: _651  and  _652
REMARK  263  A    between atoms: _651  and  _654
REMARK  264  A    between atoms: _654  and  _655
REMARK  265  A    between atoms: _655  and  _656
REMARK  266  A    between atoms: _656  and  _657
REMARK  267  A    between atoms: _657  and  _658
REMARK  268  A    between atoms: _662  and  _664
REMARK  269  A    between atoms: _664  and  _665
REMARK  270  A    between atoms: _664  and  _667
REMARK  271  A    between atoms: _667  and  _668
REMARK  272  A    between atoms: _673  and  _674
REMARK  273  A    between atoms: _676  and  _678
REMARK  274  A    between atoms: _678  and  _679
REMARK  275  A    between atoms: _678  and  _681
REMARK  276  A    between atoms: _681  and  _682
REMARK  277  A    between atoms: _687  and  _688
REMARK                            x       y       z     vdW  Elec       q    Type
REMARK                         _______ _______ _______ _____ _____    ______ ____
ROOT
ATOM      1  O   HOH     1     198.660 129.782  40.142  0.00  0.00    +0.000 OA
ENDROOT
TORSDOF 0
REMARK  Name = ../refined-set-2016/1o1s/1o1s_pocket.pdb
REMARK  277 active torsions:
REMARK  status: ('A' for Active; 'I' for Inactive)
REMARK    1  A    between atoms: _1  and  _3
REMARK    2  A    between atoms: _3  and  _4
REMARK    3  A    between atoms: _7  and  _9
REMARK    4  A    between atoms: _9  and  _10
REMARK    5  A    between atoms: _9  and  _12
REMARK    6  A    between atoms: _12  and  _13
REMARK    7  A    between atoms: _18  and  _19
REMARK    8  A    between atoms: _21  and  _23
REMARK    9  A    between atoms: _23  and  _24
REMARK   10  A    between atoms: _23  and  _26
REMARK   11  A    between atoms: _26  and  _27
REMARK   12  A    between atoms: _27  and  _28
REMARK   13  A    between atoms: _28  and  _29
REMARK   14  A    between atoms: _29  and  _30
REMARK   15  A    between atoms: _34  and  _36
REMARK   16  A    between atoms: _36  and  _37
REMARK   17  A    between atoms: _36  and  _39
REMARK   18  A    between atoms: _39  and  _40
REMARK   19  A    between atoms: _45  and  _47
REMARK   20  A    between atoms: _47  and  _48
REMARK   21  A    between atoms: _47  and  _50
REMARK   22  A    between atoms: _50  and  _51
REMARK   23  A    between atoms: _56  and  _57
REMARK   24  A    between atoms: _59  and  _61
REMARK   25  A    between atoms: _61  and  _62
REMARK   26  A    between atoms: _61  and  _64
REMARK   27  A    between atoms: _64  and  _65
REMARK   28  A    between atoms: _65  and  _66
REMARK   29  A    between atoms: _71  and  _73
REMARK   30  A    between atoms: _73  and  _74
REMARK   31  A    between atoms: _73  and  _76
REMARK   32  A    between atoms: _76  and  _77
REMARK   33  A    between atoms: _80  and  _82
REMARK   34  A    between atoms: _82  and  _83
REMARK   35  A    between atoms: _82  and  _85
REMARK   36  A    between atoms: _85  and  _86
REMARK   37  A    between atoms: _86  and  _87
REMARK   38  A    between atoms: _87  and  _88
REMARK   39  A    between atoms: _88  and  _89
REMARK   40  A    between atoms: _93  and  _95
REMARK   41  A    between atoms: _95  and  _96
REMARK   42  A    between atoms: _95  and  _98
REMARK   43  A    between atoms: _98  and  _99
REMARK   44  A    between atoms: _104  and  _106
REMARK   45  A    between atoms: _106  and  _107
REMARK   46  A    between atoms: _106  and  _109
REMARK   47  A    between atoms: _109  and  _110
REMARK   48  A    between atoms: _115  and  _116
REMARK   49  A    between atoms: _118  and  _120
REMARK   50  A    between atoms: _120  and  _121
REMARK   51  A    between atoms: _120  and  _123
REMARK   52  A    between atoms: _123  and  _124
REMARK   53  A    between atoms: _129  and  _131
REMARK   54  A    between atoms: _131  and  _132
REMARK   55  A    between atoms: _135  and  _137
REMARK   56  A    between atoms: _137  and  _138
REMARK   57  A    between atoms: _137  and  _140
REMARK   58  A    between atoms: _140  and  _141
REMARK   59  A    between atoms: _141  and  _142
REMARK   60  A    between atoms: _147  and  _149
REMARK   61  A    between atoms: _149  and  _150
REMARK   62  A    between atoms: _149  and  _152
REMARK   63  A    between atoms: _152  and  _153
REMARK   64  A    between atoms: _155  and  _157
REMARK   65  A    between atoms: _157  and  _158
REMARK   66  A    between atoms: _157  and  _160
REMARK   67  A    between atoms: _160  and  _161
REMARK   68  A    between atoms: _164  and  _166
REMARK   69  A    between atoms: _166  and  _167
REMARK   70  A    between atoms: _170  and  _172
REMARK   71  A    between atoms: _172  and  _173
REMARK   72  A    between atoms: _172  and  _175
REMARK   73  A    between atoms: _175  and  _176
REMARK   74  A    between atoms: _178  and  _180
REMARK   75  A    between atoms: _180  and  _181
REMARK   76  A    between atoms: _180  and  _183
REMARK   77  A    between atoms: _183  and  _184
REMARK   78  A    between atoms: _194  and  _196
REMARK   79  A    between atoms: _196  and  _197
REMARK   80  A    between atoms: _196  and  _199
REMARK   81  A    between atoms: _199  and  _200
REMARK   82  A    between atoms: _210  and  _212
REMARK   83  A    between atoms: _212  and  _213
REMARK   84  A    between atoms: _212  and  _215
REMARK   85  A    between atoms: _215  and  _216
REMARK   86  A    between atoms: _221  and  _223
REMARK   87  A    between atoms: _223  and  _224
REMARK   88  A    between atoms: _223  and  _226
REMARK   89  A    between atoms: _226  and  _227
REMARK   90  A    between atoms: _230  and  _232
REMARK   91  A    between atoms: _232  and  _233
REMARK   92  A    between atoms: _237  and  _238
REMARK   93  A    between atoms: _243  and  _245
REMARK   94  A    between atoms: _245  and  _246
REMARK   95  A    between atoms: _245  and  _248
REMARK   96  A    between atoms: _248  and  _249
REMARK   97  A    between atoms: _252  and  _254
REMARK   98  A    between atoms: _254  and  _255
REMARK   99  A    between atoms: _254  and  _257
REMARK  100  A    between atoms: _257  and  _258
REMARK  101  A    between atoms: _263  and  _264
REMARK  102  A    between atoms: _266  and  _268
REMARK  103  A    between atoms: _268  and  _269
REMARK  104  A    between atoms: _272  and  _274
REMARK  105  A    between atoms: _274  and  _275
REMARK  106  A    between atoms: _274  and  _277
REMARK  107  A    between atoms: _277  and  _278
REMARK  108  A    between atoms: _278  and  _279
REMARK  109  A    between atoms: _281  and  _283
REMARK  110  A    between atoms: _283  and  _284
REMARK  111  A    between atoms: _283  and  _286
REMARK  112  A    between atoms: _286  and  _287
REMARK  113  A    between atoms: _292  and  _294
REMARK  114  A    between atoms: _294  and  _295
REMARK  115  A    between atoms: _294  and  _297
REMARK  116  A    between atoms: _297  and  _298
REMARK  117  A    between atoms: _298  and  _299
REMARK  118  A    between atoms: _302  and  _304
REMARK  119  A    between atoms: _304  and  _305
REMARK  120  A    between atoms: _304  and  _307
REMARK  121  A    between atoms: _307  and  _308
REMARK  122  A    between atoms: _311  and  _313
REMARK  123  A    between atoms: _313  and  _314
REMARK  124  A    between atoms: _313  and  _316
REMARK  125  A    between atoms: _319  and  _321
REMARK  126  A    between atoms: _321  and  _322
REMARK  127  A    between atoms: _321  and  _324
REMARK  128  A    between atoms: _324  and  _325
REMARK  129  A    between atoms: _325  and  _326
REMARK  130  A    between atoms: _326  and  _327
REMARK  131  A    between atoms: _336  and  _338
REMARK  132  A    between atoms: _338  and  _339
REMARK  133  A    between atoms: _338  and  _341
REMARK  134  A    between atoms: _341  and  _342
REMARK  135  A    between atoms: _344  and  _346
REMARK  136  A    between atoms: _346  and  _347
REMARK  137  A    between atoms: _346  and  _349
REMARK  138  A    between atoms: _349  and  _350
REMARK  139  A    between atoms: _355  and  _356
REMARK  140  A    between atoms: _358  and  _360
REMARK  141  A    between atoms: _360  and  _361
REMARK  142  A    between atoms: _360  and  _363
REMARK  143  A    between atoms: _365  and  _367
REMARK  144  A    between atoms: _367  and  _368
REMARK  145  A    between atoms: _370  and  _372
REMARK  146  A    between atoms: _372  and  _373
REMARK  147  A    between atoms: _372  and  _375
REMARK  148  A    between atoms: _375  and  _376
REMARK  149  A    between atoms: _376  and  _377
REMARK  150  A    between atoms: _379  and  _381
REMARK  151  A    between atoms: _381  and  _382
REMARK  152  A    between atoms: _381  and  _384
REMARK  153  A    between atoms: _384  and  _385
REMARK  154  A    between atoms: _385  and  _386
REMARK  155  A    between atoms: _389  and  _391
REMARK  156  A    between atoms: _391  and  _392
REMARK  157  A    between atoms: _395  and  _397
REMARK  158  A    between atoms: _397  and  _398
REMARK  159  A    between atoms: _397  and  _400
REMARK  160  A    between atoms: _400  and  _401
REMARK  161  A    between atoms: _406  and  _408
REMARK  162  A    between atoms: _408  and  _409
REMARK  163  A    between atoms: _411  and  _413
REMARK  164  A    between atoms: _413  and  _414
REMARK  165  A    between atoms: _416  and  _418
REMARK  166  A    between atoms: _418  and  _419
REMARK  167  A    between atoms: _418  and  _421
REMARK  168  A    between atoms: _421  and  _422
REMARK  169  A    between atoms: _427  and  _428
REMARK  170  A    between atoms: _430  and  _432
REMARK  171  A    between atoms: _432  and  _433
REMARK  172  A    between atoms: _432  and  _435
REMARK  173  A    between atoms: _435  and  _436
REMARK  174  A    between atoms: _439  and  _441
REMARK  175  A    between atoms: _441  and  _442
REMARK  176  A    between atoms: _441  and  _444
REMARK  177  A    between atoms: _444  and  _445
REMARK  178  A    between atoms: _451  and  _453
REMARK  179  A    between atoms: _453  and  _454
REMARK  180  A    between atoms: _453  and  _456
REMARK  181  A    between atoms: _458  and  _460
REMARK  182  A    between atoms: _460  and  _461
REMARK  183  A    between atoms: _463  and  _465
REMARK  184  A    between atoms: _465  and  _466
REMARK  185  A    between atoms: _465  and  _468
REMARK  186  A    between atoms: _468  and  _469
REMARK  187  A    between atoms: _475  and  _477
REMARK  188  A    between atoms: _477  and  _478
REMARK  189  A    between atoms: _477  and  _480
REMARK  190  A    between atoms: _480  and  _481
REMARK  191  A    between atoms: _481  and  _482
REMARK  192  A    between atoms: _487  and  _489
REMARK  193  A    between atoms: _489  and  _490
REMARK  194  A    between atoms: _492  and  _494
REMARK  195  A    between atoms: _494  and  _495
REMARK  196  A    between atoms: _494  and  _497
REMARK  197  A    between atoms: _497  and  _498
REMARK  198  A    between atoms: _498  and  _499
REMARK  199  A    between atoms: _499  and  _500
REMARK  200  A    between atoms: _509  and  _511
REMARK  201  A    between atoms: _511  and  _512
REMARK  202  A    between atoms: _511  and  _514
REMARK  203  A    between atoms: _516  and  _518
REMARK  204  A    between atoms: _518  and  _519
REMARK  205  A    between atoms: _518  and  _521
REMARK  206  A    between atoms: _521  and  _522
REMARK  207  A    between atoms: _527  and  _529
REMARK  208  A    between atoms: _529  and  _530
REMARK  209  A    between atoms: _529  and  _532
REMARK  210  A    between atoms: _532  and  _533
REMARK  211  A    between atoms: _533  and  _534
REMARK  212  A    between atoms: _534  and  _535
REMARK  213  A    between atoms: _535  and  _536
REMARK  214  A    between atoms: _540  and  _542
REMARK  215  A    between atoms: _542  and  _543
REMARK  216  A    between atoms: _542  and  _545
REMARK  217  A    between atoms: _545  and  _546
REMARK  218  A    between atoms: _549  and  _551
REMARK  219  A    between atoms: _551  and  _552
REMARK  220  A    between atoms: _551  and  _554
REMARK  221  A    between atoms: _557  and  _559
REMARK  222  A    between atoms: _559  and  _560
REMARK  223  A    between atoms: _559  and  _562
REMARK  224  A    between atoms: _562  and  _563
REMARK  225  A    between atoms: _563  and  _565
REMARK  226  A    between atoms: _565  and  ZN_690
REMARK  227  A    between atoms: _566  and  _568
REMARK  228  A    between atoms: _568  and  _569
REMARK  229  A    between atoms: _568  and  _571
REMARK  230  A    between atoms: _571  and  _572
REMARK  231  A    between atoms: _572  and  ZN_690
REMARK  232  A    between atoms: _573  and  _575
REMARK  233  A    between atoms: _575  and  _576
REMARK  234  A    between atoms: _575  and  _578
REMARK  235  A    between atoms: _578  and  _579
REMARK  236  A    between atoms: _584  and  _585
REMARK  237  A    between atoms: _587  and  _589
REMARK  238  A    between atoms: _589  and  _590
REMARK  239  A    between atoms: _589  and  _592
REMARK  240  A    between atoms: _592  and  _593
REMARK  241  A    between atoms: _599  and  _601
REMARK  242  A    between atoms: _601  and  _602
REMARK  243  A    between atoms: _601  and  _604
REMARK  244  A    between atoms: _604  and  _605
REMARK  245  A    between atoms: _615  and  _617
REMARK  246  A    between atoms: _617  and  _618
REMARK  247  A    between atoms: _617  and  _620
REMARK  248  A    between atoms: _620  and  _621
REMARK  249  A    between atoms: _621  and  _622
REMARK  250  A    between atoms: _627  and  _629
REMARK  251  A    between atoms: _629  and  _630
REMARK  252  A    between atoms: _629  and  _632
REMARK  253  A    between atoms: _632  and  _633
REMARK  254  A    between atoms: _636  and  _638
REMARK  255  A    between atoms: _638  and  _639
REMARK  256  A    between atoms: _638  and  _641
REMARK  257  A    between atoms: _641  and  _642
REMARK  258  A    between atoms: _642  and  _643
REMARK  259  A    between atoms: _643  and  _644
REMARK  260  A    between atoms: _644  and  _645
REMARK  261  A    between atoms: _649  and  _651
REMARK  262  A    between atoms: _651  and  _652
REMARK  263  A    between atoms: _651  and  _654
REMARK  264  A    between atoms: _654  and  _655
REMARK  265  A    between atoms: _655  and  _656
REMARK  266  A    between atoms: _656  and  _657
REMARK  267  A    between atoms: _657  and  _658
REMARK  268  A    between atoms: _662  and  _664
REMARK  269  A    between atoms: _664  and  _665
REMARK  270  A    between atoms: _664  and  _667
REMARK  271  A    between atoms: _667  and  _668
REMARK  272  A    between atoms: _673  and  _674
REMARK  273  A    between atoms: _676  and  _678
REMARK  274  A    between atoms: _678  and  _679
REMARK  275  A    between atoms: _678  and  _681
REMARK  276  A    between atoms: _681  and  _682
REMARK  277  A    between atoms: _687  and  _688
REMARK                            x       y       z     vdW  Elec       q    Type
REMARK                         _______ _______ _______ _____ _____    ______ ____
ROOT
ATOM      1  O   HOH     1     197.453 126.037  39.452  0.00  0.00    +0.000 OA
ENDROOT
TORSDOF 0
REMARK  Name = ../refined-set-2016/1o1s/1o1s_pocket.pdb
REMARK  277 active torsions:
REMARK  status: ('A' for Active; 'I' for Inactive)
REMARK    1  A    between atoms: _1  and  _3
REMARK    2  A    between atoms: _3  and  _4
REMARK    3  A    between atoms: _7  and  _9
REMARK    4  A    between atoms: _9  and  _10
REMARK    5  A    between atoms: _9  and  _12
REMARK    6  A    between atoms: _12  and  _13
REMARK    7  A    between atoms: _18  and  _19
REMARK    8  A    between atoms: _21  and  _23
REMARK    9  A    between atoms: _23  and  _24
REMARK   10  A    between atoms: _23  and  _26
REMARK   11  A    between atoms: _26  and  _27
REMARK   12  A    between atoms: _27  and  _28
REMARK   13  A    between atoms: _28  and  _29
REMARK   14  A    between atoms: _29  and  _30
REMARK   15  A    between atoms: _34  and  _36
REMARK   16  A    between atoms: _36  and  _37
REMARK   17  A    between atoms: _36  and  _39
REMARK   18  A    between atoms: _39  and  _40
REMARK   19  A    between atoms: _45  and  _47
REMARK   20  A    between atoms: _47  and  _48
REMARK   21  A    between atoms: _47  and  _50
REMARK   22  A    between atoms: _50  and  _51
REMARK   23  A    between atoms: _56  and  _57
REMARK   24  A    between atoms: _59  and  _61
REMARK   25  A    between atoms: _61  and  _62
REMARK   26  A    between atoms: _61  and  _64
REMARK   27  A    between atoms: _64  and  _65
REMARK   28  A    between atoms: _65  and  _66
REMARK   29  A    between atoms: _71  and  _73
REMARK   30  A    between atoms: _73  and  _74
REMARK   31  A    between atoms: _73  and  _76
REMARK   32  A    between atoms: _76  and  _77
REMARK   33  A    between atoms: _80  and  _82
REMARK   34  A    between atoms: _82  and  _83
REMARK   35  A    between atoms: _82  and  _85
REMARK   36  A    between atoms: _85  and  _86
REMARK   37  A    between atoms: _86  and  _87
REMARK   38  A    between atoms: _87  and  _88
REMARK   39  A    between atoms: _88  and  _89
REMARK   40  A    between atoms: _93  and  _95
REMARK   41  A    between atoms: _95  and  _96
REMARK   42  A    between atoms: _95  and  _98
REMARK   43  A    between atoms: _98  and  _99
REMARK   44  A    between atoms: _104  and  _106
REMARK   45  A    between atoms: _106  and  _107
REMARK   46  A    between atoms: _106  and  _109
REMARK   47  A    between atoms: _109  and  _110
REMARK   48  A    between atoms: _115  and  _116
REMARK   49  A    between atoms: _118  and  _120
REMARK   50  A    between atoms: _120  and  _121
REMARK   51  A    between atoms: _120  and  _123
REMARK   52  A    between atoms: _123  and  _124
REMARK   53  A    between atoms: _129  and  _131
REMARK   54  A    between atoms: _131  and  _132
REMARK   55  A    between atoms: _135  and  _137
REMARK   56  A    between atoms: _137  and  _138
REMARK   57  A    between atoms: _137  and  _140
REMARK   58  A    between atoms: _140  and  _141
REMARK   59  A    between atoms: _141  and  _142
REMARK   60  A    between atoms: _147  and  _149
REMARK   61  A    between atoms: _149  and  _150
REMARK   62  A    between atoms: _149  and  _152
REMARK   63  A    between atoms: _152  and  _153
REMARK   64  A    between atoms: _155  and  _157
REMARK   65  A    between atoms: _157  and  _158
REMARK   66  A    between atoms: _157  and  _160
REMARK   67  A    between atoms: _160  and  _161
REMARK   68  A    between atoms: _164  and  _166
REMARK   69  A    between atoms: _166  and  _167
REMARK   70  A    between atoms: _170  and  _172
REMARK   71  A    between atoms: _172  and  _173
REMARK   72  A    between atoms: _172  and  _175
REMARK   73  A    between atoms: _175  and  _176
REMARK   74  A    between atoms: _178  and  _180
REMARK   75  A    between atoms: _180  and  _181
REMARK   76  A    between atoms: _180  and  _183
REMARK   77  A    between atoms: _183  and  _184
REMARK   78  A    between atoms: _194  and  _196
REMARK   79  A    between atoms: _196  and  _197
REMARK   80  A    between atoms: _196  and  _199
REMARK   81  A    between atoms: _199  and  _200
REMARK   82  A    between atoms: _210  and  _212
REMARK   83  A    between atoms: _212  and  _213
REMARK   84  A    between atoms: _212  and  _215
REMARK   85  A    between atoms: _215  and  _216
REMARK   86  A    between atoms: _221  and  _223
REMARK   87  A    between atoms: _223  and  _224
REMARK   88  A    between atoms: _223  and  _226
REMARK   89  A    between atoms: _226  and  _227
REMARK   90  A    between atoms: _230  and  _232
REMARK   91  A    between atoms: _232  and  _233
REMARK   92  A    between atoms: _237  and  _238
REMARK   93  A    between atoms: _243  and  _245
REMARK   94  A    between atoms: _245  and  _246
REMARK   95  A    between atoms: _245  and  _248
REMARK   96  A    between atoms: _248  and  _249
REMARK   97  A    between atoms: _252  and  _254
REMARK   98  A    between atoms: _254  and  _255
REMARK   99  A    between atoms: _254  and  _257
REMARK  100  A    between atoms: _257  and  _258
REMARK  101  A    between atoms: _263  and  _264
REMARK  102  A    between atoms: _266  and  _268
REMARK  103  A    between atoms: _268  and  _269
REMARK  104  A    between atoms: _272  and  _274
REMARK  105  A    between atoms: _274  and  _275
REMARK  106  A    between atoms: _274  and  _277
REMARK  107  A    between atoms: _277  and  _278
REMARK  108  A    between atoms: _278  and  _279
REMARK  109  A    between atoms: _281  and  _283
REMARK  110  A    between atoms: _283  and  _284
REMARK  111  A    between atoms: _283  and  _286
REMARK  112  A    between atoms: _286  and  _287
REMARK  113  A    between atoms: _292  and  _294
REMARK  114  A    between atoms: _294  and  _295
REMARK  115  A    between atoms: _294  and  _297
REMARK  116  A    between atoms: _297  and  _298
REMARK  117  A    between atoms: _298  and  _299
REMARK  118  A    between atoms: _302  and  _304
REMARK  119  A    between atoms: _304  and  _305
REMARK  120  A    between atoms: _304  and  _307
REMARK  121  A    between atoms: _307  and  _308
REMARK  122  A    between atoms: _311  and  _313
REMARK  123  A    between atoms: _313  and  _314
REMARK  124  A    between atoms: _313  and  _316
REMARK  125  A    between atoms: _319  and  _321
REMARK  126  A    between atoms: _321  and  _322
REMARK  127  A    between atoms: _321  and  _324
REMARK  128  A    between atoms: _324  and  _325
REMARK  129  A    between atoms: _325  and  _326
REMARK  130  A    between atoms: _326  and  _327
REMARK  131  A    between atoms: _336  and  _338
REMARK  132  A    between atoms: _338  and  _339
REMARK  133  A    between atoms: _338  and  _341
REMARK  134  A    between atoms: _341  and  _342
REMARK  135  A    between atoms: _344  and  _346
REMARK  136  A    between atoms: _346  and  _347
REMARK  137  A    between atoms: _346  and  _349
REMARK  138  A    between atoms: _349  and  _350
REMARK  139  A    between atoms: _355  and  _356
REMARK  140  A    between atoms: _358  and  _360
REMARK  141  A    between atoms: _360  and  _361
REMARK  142  A    between atoms: _360  and  _363
REMARK  143  A    between atoms: _365  and  _367
REMARK  144  A    between atoms: _367  and  _368
REMARK  145  A    between atoms: _370  and  _372
REMARK  146  A    between atoms: _372  and  _373
REMARK  147  A    between atoms: _372  and  _375
REMARK  148  A    between atoms: _375  and  _376
REMARK  149  A    between atoms: _376  and  _377
REMARK  150  A    between atoms: _379  and  _381
REMARK  151  A    between atoms: _381  and  _382
REMARK  152  A    between atoms: _381  and  _384
REMARK  153  A    between atoms: _384  and  _385
REMARK  154  A    between atoms: _385  and  _386
REMARK  155  A    between atoms: _389  and  _391
REMARK  156  A    between atoms: _391  and  _392
REMARK  157  A    between atoms: _395  and  _397
REMARK  158  A    between atoms: _397  and  _398
REMARK  159  A    between atoms: _397  and  _400
REMARK  160  A    between atoms: _400  and  _401
REMARK  161  A    between atoms: _406  and  _408
REMARK  162  A    between atoms: _408  and  _409
REMARK  163  A    between atoms: _411  and  _413
REMARK  164  A    between atoms: _413  and  _414
REMARK  165  A    between atoms: _416  and  _418
REMARK  166  A    between atoms: _418  and  _419
REMARK  167  A    between atoms: _418  and  _421
REMARK  168  A    between atoms: _421  and  _422
REMARK  169  A    between atoms: _427  and  _428
REMARK  170  A    between atoms: _430  and  _432
REMARK  171  A    between atoms: _432  and  _433
REMARK  172  A    between atoms: _432  and  _435
REMARK  173  A    between atoms: _435  and  _436
REMARK  174  A    between atoms: _439  and  _441
REMARK  175  A    between atoms: _441  and  _442
REMARK  176  A    between atoms: _441  and  _444
REMARK  177  A    between atoms: _444  and  _445
REMARK  178  A    between atoms: _451  and  _453
REMARK  179  A    between atoms: _453  and  _454
REMARK  180  A    between atoms: _453  and  _456
REMARK  181  A    between atoms: _458  and  _460
REMARK  182  A    between atoms: _460  and  _461
REMARK  183  A    between atoms: _463  and  _465
REMARK  184  A    between atoms: _465  and  _466
REMARK  185  A    between atoms: _465  and  _468
REMARK  186  A    between atoms: _468  and  _469
REMARK  187  A    between atoms: _475  and  _477
REMARK  188  A    between atoms: _477  and  _478
REMARK  189  A    between atoms: _477  and  _480
REMARK  190  A    between atoms: _480  and  _481
REMARK  191  A    between atoms: _481  and  _482
REMARK  192  A    between atoms: _487  and  _489
REMARK  193  A    between atoms: _489  and  _490
REMARK  194  A    between atoms: _492  and  _494
REMARK  195  A    between atoms: _494  and  _495
REMARK  196  A    between atoms: _494  and  _497
REMARK  197  A    between atoms: _497  and  _498
REMARK  198  A    between atoms: _498  and  _499
REMARK  199  A    between atoms: _499  and  _500
REMARK  200  A    between atoms: _509  and  _511
REMARK  201  A    between atoms: _511  and  _512
REMARK  202  A    between atoms: _511  and  _514
REMARK  203  A    between atoms: _516  and  _518
REMARK  204  A    between atoms: _518  and  _519
REMARK  205  A    between atoms: _518  and  _521
REMARK  206  A    between atoms: _521  and  _522
REMARK  207  A    between atoms: _527  and  _529
REMARK  208  A    between atoms: _529  and  _530
REMARK  209  A    between atoms: _529  and  _532
REMARK  210  A    between atoms: _532  and  _533
REMARK  211  A    between atoms: _533  and  _534
REMARK  212  A    between atoms: _534  and  _535
REMARK  213  A    between atoms: _535  and  _536
REMARK  214  A    between atoms: _540  and  _542
REMARK  215  A    between atoms: _542  and  _543
REMARK  216  A    between atoms: _542  and  _545
REMARK  217  A    between atoms: _545  and  _546
REMARK  218  A    between atoms: _549  and  _551
REMARK  219  A    between atoms: _551  and  _552
REMARK  220  A    between atoms: _551  and  _554
REMARK  221  A    between atoms: _557  and  _559
REMARK  222  A    between atoms: _559  and  _560
REMARK  223  A    between atoms: _559  and  _562
REMARK  224  A    between atoms: _562  and  _563
REMARK  225  A    between atoms: _563  and  _565
REMARK  226  A    between atoms: _565  and  ZN_690
REMARK  227  A    between atoms: _566  and  _568
REMARK  228  A    between atoms: _568  and  _569
REMARK  229  A    between atoms: _568  and  _571
REMARK  230  A    between atoms: _571  and  _572
REMARK  231  A    between atoms: _572  and  ZN_690
REMARK  232  A    between atoms: _573  and  _575
REMARK  233  A    between atoms: _575  and  _576
REMARK  234  A    between atoms: _575  and  _578
REMARK  235  A    between atoms: _578  and  _579
REMARK  236  A    between atoms: _584  and  _585
REMARK  237  A    between atoms: _587  and  _589
REMARK  238  A    between atoms: _589  and  _590
REMARK  239  A    between atoms: _589  and  _592
REMARK  240  A    between atoms: _592  and  _593
REMARK  241  A    between atoms: _599  and  _601
REMARK  242  A    between atoms: _601  and  _602
REMARK  243  A    between atoms: _601  and  _604
REMARK  244  A    between atoms: _604  and  _605
REMARK  245  A    between atoms: _615  and  _617
REMARK  246  A    between atoms: _617  and  _618
REMARK  247  A    between atoms: _617  and  _620
REMARK  248  A    between atoms: _620  and  _621
REMARK  249  A    between atoms: _621  and  _622
REMARK  250  A    between atoms: _627  and  _629
REMARK  251  A    between atoms: _629  and  _630
REMARK  252  A    between atoms: _629  and  _632
REMARK  253  A    between atoms: _632  and  _633
REMARK  254  A    between atoms: _636  and  _638
REMARK  255  A    between atoms: _638  and  _639
REMARK  256  A    between atoms: _638  and  _641
REMARK  257  A    between atoms: _641  and  _642
REMARK  258  A    between atoms: _642  and  _643
REMARK  259  A    between atoms: _643  and  _644
REMARK  260  A    between atoms: _644  and  _645
REMARK  261  A    between atoms: _649  and  _651
REMARK  262  A    between atoms: _651  and  _652
REMARK  263  A    between atoms: _651  and  _654
REMARK  264  A    between atoms: _654  and  _655
REMARK  265  A    between atoms: _655  and  _656
REMARK  266  A    between atoms: _656  and  _657
REMARK  267  A    between atoms: _657  and  _658
REMARK  268  A    between atoms: _662  and  _664
REMARK  269  A    between atoms: _664  and  _665
REMARK  270  A    between atoms: _664  and  _667
REMARK  271  A    between atoms: _667  and  _668
REMARK  272  A    between atoms: _673  and  _674
REMARK  273  A    between atoms: _676  and  _678
REMARK  274  A    between atoms: _678  and  _679
REMARK  275  A    between atoms: _678  and  _681
REMARK  276  A    between atoms: _681  and  _682
REMARK  277  A    between atoms: _687  and  _688
REMARK                            x       y       z     vdW  Elec       q    Type
REMARK                         _______ _______ _______ _____ _____    ______ ____
ROOT
ATOM      1  O   HOH     1     195.791 126.955  29.091  0.00  0.00    +0.000 OA
ENDROOT
TORSDOF 0
REMARK  Name = ../refined-set-2016/1o1s/1o1s_pocket.pdb
REMARK  277 active torsions:
REMARK  status: ('A' for Active; 'I' for Inactive)
REMARK    1  A    between atoms: _1  and  _3
REMARK    2  A    between atoms: _3  and  _4
REMARK    3  A    between atoms: _7  and  _9
REMARK    4  A    between atoms: _9  and  _10
REMARK    5  A    between atoms: _9  and  _12
REMARK    6  A    between atoms: _12  and  _13
REMARK    7  A    between atoms: _18  and  _19
REMARK    8  A    between atoms: _21  and  _23
REMARK    9  A    between atoms: _23  and  _24
REMARK   10  A    between atoms: _23  and  _26
REMARK   11  A    between atoms: _26  and  _27
REMARK   12  A    between atoms: _27  and  _28
REMARK   13  A    between atoms: _28  and  _29
REMARK   14  A    between atoms: _29  and  _30
REMARK   15  A    between atoms: _34  and  _36
REMARK   16  A    between atoms: _36  and  _37
REMARK   17  A    between atoms: _36  and  _39
REMARK   18  A    between atoms: _39  and  _40
REMARK   19  A    between atoms: _45  and  _47
REMARK   20  A    between atoms: _47  and  _48
REMARK   21  A    between atoms: _47  and  _50
REMARK   22  A    between atoms: _50  and  _51
REMARK   23  A    between atoms: _56  and  _57
REMARK   24  A    between atoms: _59  and  _61
REMARK   25  A    between atoms: _61  and  _62
REMARK   26  A    between atoms: _61  and  _64
REMARK   27  A    between atoms: _64  and  _65
REMARK   28  A    between atoms: _65  and  _66
REMARK   29  A    between atoms: _71  and  _73
REMARK   30  A    between atoms: _73  and  _74
REMARK   31  A    between atoms: _73  and  _76
REMARK   32  A    between atoms: _76  and  _77
REMARK   33  A    between atoms: _80  and  _82
REMARK   34  A    between atoms: _82  and  _83
REMARK   35  A    between atoms: _82  and  _85
REMARK   36  A    between atoms: _85  and  _86
REMARK   37  A    between atoms: _86  and  _87
REMARK   38  A    between atoms: _87  and  _88
REMARK   39  A    between atoms: _88  and  _89
REMARK   40  A    between atoms: _93  and  _95
REMARK   41  A    between atoms: _95  and  _96
REMARK   42  A    between atoms: _95  and  _98
REMARK   43  A    between atoms: _98  and  _99
REMARK   44  A    between atoms: _104  and  _106
REMARK   45  A    between atoms: _106  and  _107
REMARK   46  A    between atoms: _106  and  _109
REMARK   47  A    between atoms: _109  and  _110
REMARK   48  A    between atoms: _115  and  _116
REMARK   49  A    between atoms: _118  and  _120
REMARK   50  A    between atoms: _120  and  _121
REMARK   51  A    between atoms: _120  and  _123
REMARK   52  A    between atoms: _123  and  _124
REMARK   53  A    between atoms: _129  and  _131
REMARK   54  A    between atoms: _131  and  _132
REMARK   55  A    between atoms: _135  and  _137
REMARK   56  A    between atoms: _137  and  _138
REMARK   57  A    between atoms: _137  and  _140
REMARK   58  A    between atoms: _140  and  _141
REMARK   59  A    between atoms: _141  and  _142
REMARK   60  A    between atoms: _147  and  _149
REMARK   61  A    between atoms: _149  and  _150
REMARK   62  A    between atoms: _149  and  _152
REMARK   63  A    between atoms: _152  and  _153
REMARK   64  A    between atoms: _155  and  _157
REMARK   65  A    between atoms: _157  and  _158
REMARK   66  A    between atoms: _157  and  _160
REMARK   67  A    between atoms: _160  and  _161
REMARK   68  A    between atoms: _164  and  _166
REMARK   69  A    between atoms: _166  and  _167
REMARK   70  A    between atoms: _170  and  _172
REMARK   71  A    between atoms: _172  and  _173
REMARK   72  A    between atoms: _172  and  _175
REMARK   73  A    between atoms: _175  and  _176
REMARK   74  A    between atoms: _178  and  _180
REMARK   75  A    between atoms: _180  and  _181
REMARK   76  A    between atoms: _180  and  _183
REMARK   77  A    between atoms: _183  and  _184
REMARK   78  A    between atoms: _194  and  _196
REMARK   79  A    between atoms: _196  and  _197
REMARK   80  A    between atoms: _196  and  _199
REMARK   81  A    between atoms: _199  and  _200
REMARK   82  A    between atoms: _210  and  _212
REMARK   83  A    between atoms: _212  and  _213
REMARK   84  A    between atoms: _212  and  _215
REMARK   85  A    between atoms: _215  and  _216
REMARK   86  A    between atoms: _221  and  _223
REMARK   87  A    between atoms: _223  and  _224
REMARK   88  A    between atoms: _223  and  _226
REMARK   89  A    between atoms: _226  and  _227
REMARK   90  A    between atoms: _230  and  _232
REMARK   91  A    between atoms: _232  and  _233
REMARK   92  A    between atoms: _237  and  _238
REMARK   93  A    between atoms: _243  and  _245
REMARK   94  A    between atoms: _245  and  _246
REMARK   95  A    between atoms: _245  and  _248
REMARK   96  A    between atoms: _248  and  _249
REMARK   97  A    between atoms: _252  and  _254
REMARK   98  A    between atoms: _254  and  _255
REMARK   99  A    between atoms: _254  and  _257
REMARK  100  A    between atoms: _257  and  _258
REMARK  101  A    between atoms: _263  and  _264
REMARK  102  A    between atoms: _266  and  _268
REMARK  103  A    between atoms: _268  and  _269
REMARK  104  A    between atoms: _272  and  _274
REMARK  105  A    between atoms: _274  and  _275
REMARK  106  A    between atoms: _274  and  _277
REMARK  107  A    between atoms: _277  and  _278
REMARK  108  A    between atoms: _278  and  _279
REMARK  109  A    between atoms: _281  and  _283
REMARK  110  A    between atoms: _283  and  _284
REMARK  111  A    between atoms: _283  and  _286
REMARK  112  A    between atoms: _286  and  _287
REMARK  113  A    between atoms: _292  and  _294
REMARK  114  A    between atoms: _294  and  _295
REMARK  115  A    between atoms: _294  and  _297
REMARK  116  A    between atoms: _297  and  _298
REMARK  117  A    between atoms: _298  and  _299
REMARK  118  A    between atoms: _302  and  _304
REMARK  119  A    between atoms: _304  and  _305
REMARK  120  A    between atoms: _304  and  _307
REMARK  121  A    between atoms: _307  and  _308
REMARK  122  A    between atoms: _311  and  _313
REMARK  123  A    between atoms: _313  and  _314
REMARK  124  A    between atoms: _313  and  _316
REMARK  125  A    between atoms: _319  and  _321
REMARK  126  A    between atoms: _321  and  _322
REMARK  127  A    between atoms: _321  and  _324
REMARK  128  A    between atoms: _324  and  _325
REMARK  129  A    between atoms: _325  and  _326
REMARK  130  A    between atoms: _326  and  _327
REMARK  131  A    between atoms: _336  and  _338
REMARK  132  A    between atoms: _338  and  _339
REMARK  133  A    between atoms: _338  and  _341
REMARK  134  A    between atoms: _341  and  _342
REMARK  135  A    between atoms: _344  and  _346
REMARK  136  A    between atoms: _346  and  _347
REMARK  137  A    between atoms: _346  and  _349
REMARK  138  A    between atoms: _349  and  _350
REMARK  139  A    between atoms: _355  and  _356
REMARK  140  A    between atoms: _358  and  _360
REMARK  141  A    between atoms: _360  and  _361
REMARK  142  A    between atoms: _360  and  _363
REMARK  143  A    between atoms: _365  and  _367
REMARK  144  A    between atoms: _367  and  _368
REMARK  145  A    between atoms: _370  and  _372
REMARK  146  A    between atoms: _372  and  _373
REMARK  147  A    between atoms: _372  and  _375
REMARK  148  A    between atoms: _375  and  _376
REMARK  149  A    between atoms: _376  and  _377
REMARK  150  A    between atoms: _379  and  _381
REMARK  151  A    between atoms: _381  and  _382
REMARK  152  A    between atoms: _381  and  _384
REMARK  153  A    between atoms: _384  and  _385
REMARK  154  A    between atoms: _385  and  _386
REMARK  155  A    between atoms: _389  and  _391
REMARK  156  A    between atoms: _391  and  _392
REMARK  157  A    between atoms: _395  and  _397
REMARK  158  A    between atoms: _397  and  _398
REMARK  159  A    between atoms: _397  and  _400
REMARK  160  A    between atoms: _400  and  _401
REMARK  161  A    between atoms: _406  and  _408
REMARK  162  A    between atoms: _408  and  _409
REMARK  163  A    between atoms: _411  and  _413
REMARK  164  A    between atoms: _413  and  _414
REMARK  165  A    between atoms: _416  and  _418
REMARK  166  A    between atoms: _418  and  _419
REMARK  167  A    between atoms: _418  and  _421
REMARK  168  A    between atoms: _421  and  _422
REMARK  169  A    between atoms: _427  and  _428
REMARK  170  A    between atoms: _430  and  _432
REMARK  171  A    between atoms: _432  and  _433
REMARK  172  A    between atoms: _432  and  _435
REMARK  173  A    between atoms: _435  and  _436
REMARK  174  A    between atoms: _439  and  _441
REMARK  175  A    between atoms: _441  and  _442
REMARK  176  A    between atoms: _441  and  _444
REMARK  177  A    between atoms: _444  and  _445
REMARK  178  A    between atoms: _451  and  _453
REMARK  179  A    between atoms: _453  and  _454
REMARK  180  A    between atoms: _453  and  _456
REMARK  181  A    between atoms: _458  and  _460
REMARK  182  A    between atoms: _460  and  _461
REMARK  183  A    between atoms: _463  and  _465
REMARK  184  A    between atoms: _465  and  _466
REMARK  185  A    between atoms: _465  and  _468
REMARK  186  A    between atoms: _468  and  _469
REMARK  187  A    between atoms: _475  and  _477
REMARK  188  A    between atoms: _477  and  _478
REMARK  189  A    between atoms: _477  and  _480
REMARK  190  A    between atoms: _480  and  _481
REMARK  191  A    between atoms: _481  and  _482
REMARK  192  A    between atoms: _487  and  _489
REMARK  193  A    between atoms: _489  and  _490
REMARK  194  A    between atoms: _492  and  _494
REMARK  195  A    between atoms: _494  and  _495
REMARK  196  A    between atoms: _494  and  _497
REMARK  197  A    between atoms: _497  and  _498
REMARK  198  A    between atoms: _498  and  _499
REMARK  199  A    between atoms: _499  and  _500
REMARK  200  A    between atoms: _509  and  _511
REMARK  201  A    between atoms: _511  and  _512
REMARK  202  A    between atoms: _511  and  _514
REMARK  203  A    between atoms: _516  and  _518
REMARK  204  A    between atoms: _518  and  _519
REMARK  205  A    between atoms: _518  and  _521
REMARK  206  A    between atoms: _521  and  _522
REMARK  207  A    between atoms: _527  and  _529
REMARK  208  A    between atoms: _529  and  _530
REMARK  209  A    between atoms: _529  and  _532
REMARK  210  A    between atoms: _532  and  _533
REMARK  211  A    between atoms: _533  and  _534
REMARK  212  A    between atoms: _534  and  _535
REMARK  213  A    between atoms: _535  and  _536
REMARK  214  A    between atoms: _540  and  _542
REMARK  215  A    between atoms: _542  and  _543
REMARK  216  A    between atoms: _542  and  _545
REMARK  217  A    between atoms: _545  and  _546
REMARK  218  A    between atoms: _549  and  _551
REMARK  219  A    between atoms: _551  and  _552
REMARK  220  A    between atoms: _551  and  _554
REMARK  221  A    between atoms: _557  and  _559
REMARK  222  A    between atoms: _559  and  _560
REMARK  223  A    between atoms: _559  and  _562
REMARK  224  A    between atoms: _562  and  _563
REMARK  225  A    between atoms: _563  and  _565
REMARK  226  A    between atoms: _565  and  ZN_690
REMARK  227  A    between atoms: _566  and  _568
REMARK  228  A    between atoms: _568  and  _569
REMARK  229  A    between atoms: _568  and  _571
REMARK  230  A    between atoms: _571  and  _572
REMARK  231  A    between atoms: _572  and  ZN_690
REMARK  232  A    between atoms: _573  and  _575
REMARK  233  A    between atoms: _575  and  _576
REMARK  234  A    between atoms: _575  and  _578
REMARK  235  A    between atoms: _578  and  _579
REMARK  236  A    between atoms: _584  and  _585
REMARK  237  A    between atoms: _587  and  _589
REMARK  238  A    between atoms: _589  and  _590
REMARK  239  A    between atoms: _589  and  _592
REMARK  240  A    between atoms: _592  and  _593
REMARK  241  A    between atoms: _599  and  _601
REMARK  242  A    between atoms: _601  and  _602
REMARK  243  A    between atoms: _601  and  _604
REMARK  244  A    between atoms: _604  and  _605
REMARK  245  A    between atoms: _615  and  _617
REMARK  246  A    between atoms: _617  and  _618
REMARK  247  A    between atoms: _617  and  _620
REMARK  248  A    between atoms: _620  and  _621
REMARK  249  A    between atoms: _621  and  _622
REMARK  250  A    between atoms: _627  and  _629
REMARK  251  A    between atoms: _629  and  _630
REMARK  252  A    between atoms: _629  and  _632
REMARK  253  A    between atoms: _632  and  _633
REMARK  254  A    between atoms: _636  and  _638
REMARK  255  A    between atoms: _638  and  _639
REMARK  256  A    between atoms: _638  and  _641
REMARK  257  A    between atoms: _641  and  _642
REMARK  258  A    between atoms: _642  and  _643
REMARK  259  A    between atoms: _643  and  _644
REMARK  260  A    between atoms: _644  and  _645
REMARK  261  A    between atoms: _649  and  _651
REMARK  262  A    between atoms: _651  and  _652
REMARK  263  A    between atoms: _651  and  _654
REMARK  264  A    between atoms: _654  and  _655
REMARK  265  A    between atoms: _655  and  _656
REMARK  266  A    between atoms: _656  and  _657
REMARK  267  A    between atoms: _657  and  _658
REMARK  268  A    between atoms: _662  and  _664
REMARK  269  A    between atoms: _664  and  _665
REMARK  270  A    between atoms: _664  and  _667
REMARK  271  A    between atoms: _667  and  _668
REMARK  272  A    between atoms: _673  and  _674
REMARK  273  A    between atoms: _676  and  _678
REMARK  274  A    between atoms: _678  and  _679
REMARK  275  A    between atoms: _678  and  _681
REMARK  276  A    between atoms: _681  and  _682
REMARK  277  A    between atoms: _687  and  _688
REMARK                            x       y       z     vdW  Elec       q    Type
REMARK                         _______ _______ _______ _____ _____    ______ ____
ROOT
ATOM      1  O   HOH     1     192.149 120.382  24.706  0.00  0.00    +0.000 OA
ENDROOT
TORSDOF 0
REMARK  Name = ../refined-set-2016/1o1s/1o1s_pocket.pdb
REMARK  277 active torsions:
REMARK  status: ('A' for Active; 'I' for Inactive)
REMARK    1  A    between atoms: _1  and  _3
REMARK    2  A    between atoms: _3  and  _4
REMARK    3  A    between atoms: _7  and  _9
REMARK    4  A    between atoms: _9  and  _10
REMARK    5  A    between atoms: _9  and  _12
REMARK    6  A    between atoms: _12  and  _13
REMARK    7  A    between atoms: _18  and  _19
REMARK    8  A    between atoms: _21  and  _23
REMARK    9  A    between atoms: _23  and  _24
REMARK   10  A    between atoms: _23  and  _26
REMARK   11  A    between atoms: _26  and  _27
REMARK   12  A    between atoms: _27  and  _28
REMARK   13  A    between atoms: _28  and  _29
REMARK   14  A    between atoms: _29  and  _30
REMARK   15  A    between atoms: _34  and  _36
REMARK   16  A    between atoms: _36  and  _37
REMARK   17  A    between atoms: _36  and  _39
REMARK   18  A    between atoms: _39  and  _40
REMARK   19  A    between atoms: _45  and  _47
REMARK   20  A    between atoms: _47  and  _48
REMARK   21  A    between atoms: _47  and  _50
REMARK   22  A    between atoms: _50  and  _51
REMARK   23  A    between atoms: _56  and  _57
REMARK   24  A    between atoms: _59  and  _61
REMARK   25  A    between atoms: _61  and  _62
REMARK   26  A    between atoms: _61  and  _64
REMARK   27  A    between atoms: _64  and  _65
REMARK   28  A    between atoms: _65  and  _66
REMARK   29  A    between atoms: _71  and  _73
REMARK   30  A    between atoms: _73  and  _74
REMARK   31  A    between atoms: _73  and  _76
REMARK   32  A    between atoms: _76  and  _77
REMARK   33  A    between atoms: _80  and  _82
REMARK   34  A    between atoms: _82  and  _83
REMARK   35  A    between atoms: _82  and  _85
REMARK   36  A    between atoms: _85  and  _86
REMARK   37  A    between atoms: _86  and  _87
REMARK   38  A    between atoms: _87  and  _88
REMARK   39  A    between atoms: _88  and  _89
REMARK   40  A    between atoms: _93  and  _95
REMARK   41  A    between atoms: _95  and  _96
REMARK   42  A    between atoms: _95  and  _98
REMARK   43  A    between atoms: _98  and  _99
REMARK   44  A    between atoms: _104  and  _106
REMARK   45  A    between atoms: _106  and  _107
REMARK   46  A    between atoms: _106  and  _109
REMARK   47  A    between atoms: _109  and  _110
REMARK   48  A    between atoms: _115  and  _116
REMARK   49  A    between atoms: _118  and  _120
REMARK   50  A    between atoms: _120  and  _121
REMARK   51  A    between atoms: _120  and  _123
REMARK   52  A    between atoms: _123  and  _124
REMARK   53  A    between atoms: _129  and  _131
REMARK   54  A    between atoms: _131  and  _132
REMARK   55  A    between atoms: _135  and  _137
REMARK   56  A    between atoms: _137  and  _138
REMARK   57  A    between atoms: _137  and  _140
REMARK   58  A    between atoms: _140  and  _141
REMARK   59  A    between atoms: _141  and  _142
REMARK   60  A    between atoms: _147  and  _149
REMARK   61  A    between atoms: _149  and  _150
REMARK   62  A    between atoms: _149  and  _152
REMARK   63  A    between atoms: _152  and  _153
REMARK   64  A    between atoms: _155  and  _157
REMARK   65  A    between atoms: _157  and  _158
REMARK   66  A    between atoms: _157  and  _160
REMARK   67  A    between atoms: _160  and  _161
REMARK   68  A    between atoms: _164  and  _166
REMARK   69  A    between atoms: _166  and  _167
REMARK   70  A    between atoms: _170  and  _172
REMARK   71  A    between atoms: _172  and  _173
REMARK   72  A    between atoms: _172  and  _175
REMARK   73  A    between atoms: _175  and  _176
REMARK   74  A    between atoms: _178  and  _180
REMARK   75  A    between atoms: _180  and  _181
REMARK   76  A    between atoms: _180  and  _183
REMARK   77  A    between atoms: _183  and  _184
REMARK   78  A    between atoms: _194  and  _196
REMARK   79  A    between atoms: _196  and  _197
REMARK   80  A    between atoms: _196  and  _199
REMARK   81  A    between atoms: _199  and  _200
REMARK   82  A    between atoms: _210  and  _212
REMARK   83  A    between atoms: _212  and  _213
REMARK   84  A    between atoms: _212  and  _215
REMARK   85  A    between atoms: _215  and  _216
REMARK   86  A    between atoms: _221  and  _223
REMARK   87  A    between atoms: _223  and  _224
REMARK   88  A    between atoms: _223  and  _226
REMARK   89  A    between atoms: _226  and  _227
REMARK   90  A    between atoms: _230  and  _232
REMARK   91  A    between atoms: _232  and  _233
REMARK   92  A    between atoms: _237  and  _238
REMARK   93  A    between atoms: _243  and  _245
REMARK   94  A    between atoms: _245  and  _246
REMARK   95  A    between atoms: _245  and  _248
REMARK   96  A    between atoms: _248  and  _249
REMARK   97  A    between atoms: _252  and  _254
REMARK   98  A    between atoms: _254  and  _255
REMARK   99  A    between atoms: _254  and  _257
REMARK  100  A    between atoms: _257  and  _258
REMARK  101  A    between atoms: _263  and  _264
REMARK  102  A    between atoms: _266  and  _268
REMARK  103  A    between atoms: _268  and  _269
REMARK  104  A    between atoms: _272  and  _274
REMARK  105  A    between atoms: _274  and  _275
REMARK  106  A    between atoms: _274  and  _277
REMARK  107  A    between atoms: _277  and  _278
REMARK  108  A    between atoms: _278  and  _279
REMARK  109  A    between atoms: _281  and  _283
REMARK  110  A    between atoms: _283  and  _284
REMARK  111  A    between atoms: _283  and  _286
REMARK  112  A    between atoms: _286  and  _287
REMARK  113  A    between atoms: _292  and  _294
REMARK  114  A    between atoms: _294  and  _295
REMARK  115  A    between atoms: _294  and  _297
REMARK  116  A    between atoms: _297  and  _298
REMARK  117  A    between atoms: _298  and  _299
REMARK  118  A    between atoms: _302  and  _304
REMARK  119  A    between atoms: _304  and  _305
REMARK  120  A    between atoms: _304  and  _307
REMARK  121  A    between atoms: _307  and  _308
REMARK  122  A    between atoms: _311  and  _313
REMARK  123  A    between atoms: _313  and  _314
REMARK  124  A    between atoms: _313  and  _316
REMARK  125  A    between atoms: _319  and  _321
REMARK  126  A    between atoms: _321  and  _322
REMARK  127  A    between atoms: _321  and  _324
REMARK  128  A    between atoms: _324  and  _325
REMARK  129  A    between atoms: _325  and  _326
REMARK  130  A    between atoms: _326  and  _327
REMARK  131  A    between atoms: _336  and  _338
REMARK  132  A    between atoms: _338  and  _339
REMARK  133  A    between atoms: _338  and  _341
REMARK  134  A    between atoms: _341  and  _342
REMARK  135  A    between atoms: _344  and  _346
REMARK  136  A    between atoms: _346  and  _347
REMARK  137  A    between atoms: _346  and  _349
REMARK  138  A    between atoms: _349  and  _350
REMARK  139  A    between atoms: _355  and  _356
REMARK  140  A    between atoms: _358  and  _360
REMARK  141  A    between atoms: _360  and  _361
REMARK  142  A    between atoms: _360  and  _363
REMARK  143  A    between atoms: _365  and  _367
REMARK  144  A    between atoms: _367  and  _368
REMARK  145  A    between atoms: _370  and  _372
REMARK  146  A    between atoms: _372  and  _373
REMARK  147  A    between atoms: _372  and  _375
REMARK  148  A    between atoms: _375  and  _376
REMARK  149  A    between atoms: _376  and  _377
REMARK  150  A    between atoms: _379  and  _381
REMARK  151  A    between atoms: _381  and  _382
REMARK  152  A    between atoms: _381  and  _384
REMARK  153  A    between atoms: _384  and  _385
REMARK  154  A    between atoms: _385  and  _386
REMARK  155  A    between atoms: _389  and  _391
REMARK  156  A    between atoms: _391  and  _392
REMARK  157  A    between atoms: _395  and  _397
REMARK  158  A    between atoms: _397  and  _398
REMARK  159  A    between atoms: _397  and  _400
REMARK  160  A    between atoms: _400  and  _401
REMARK  161  A    between atoms: _406  and  _408
REMARK  162  A    between atoms: _408  and  _409
REMARK  163  A    between atoms: _411  and  _413
REMARK  164  A    between atoms: _413  and  _414
REMARK  165  A    between atoms: _416  and  _418
REMARK  166  A    between atoms: _418  and  _419
REMARK  167  A    between atoms: _418  and  _421
REMARK  168  A    between atoms: _421  and  _422
REMARK  169  A    between atoms: _427  and  _428
REMARK  170  A    between atoms: _430  and  _432
REMARK  171  A    between atoms: _432  and  _433
REMARK  172  A    between atoms: _432  and  _435
REMARK  173  A    between atoms: _435  and  _436
REMARK  174  A    between atoms: _439  and  _441
REMARK  175  A    between atoms: _441  and  _442
REMARK  176  A    between atoms: _441  and  _444
REMARK  177  A    between atoms: _444  and  _445
REMARK  178  A    between atoms: _451  and  _453
REMARK  179  A    between atoms: _453  and  _454
REMARK  180  A    between atoms: _453  and  _456
REMARK  181  A    between atoms: _458  and  _460
REMARK  182  A    between atoms: _460  and  _461
REMARK  183  A    between atoms: _463  and  _465
REMARK  184  A    between atoms: _465  and  _466
REMARK  185  A    between atoms: _465  and  _468
REMARK  186  A    between atoms: _468  and  _469
REMARK  187  A    between atoms: _475  and  _477
REMARK  188  A    between atoms: _477  and  _478
REMARK  189  A    between atoms: _477  and  _480
REMARK  190  A    between atoms: _480  and  _481
REMARK  191  A    between atoms: _481  and  _482
REMARK  192  A    between atoms: _487  and  _489
REMARK  193  A    between atoms: _489  and  _490
REMARK  194  A    between atoms: _492  and  _494
REMARK  195  A    between atoms: _494  and  _495
REMARK  196  A    between atoms: _494  and  _497
REMARK  197  A    between atoms: _497  and  _498
REMARK  198  A    between atoms: _498  and  _499
REMARK  199  A    between atoms: _499  and  _500
REMARK  200  A    between atoms: _509  and  _511
REMARK  201  A    between atoms: _511  and  _512
REMARK  202  A    between atoms: _511  and  _514
REMARK  203  A    between atoms: _516  and  _518
REMARK  204  A    between atoms: _518  and  _519
REMARK  205  A    between atoms: _518  and  _521
REMARK  206  A    between atoms: _521  and  _522
REMARK  207  A    between atoms: _527  and  _529
REMARK  208  A    between atoms: _529  and  _530
REMARK  209  A    between atoms: _529  and  _532
REMARK  210  A    between atoms: _532  and  _533
REMARK  211  A    between atoms: _533  and  _534
REMARK  212  A    between atoms: _534  and  _535
REMARK  213  A    between atoms: _535  and  _536
REMARK  214  A    between atoms: _540  and  _542
REMARK  215  A    between atoms: _542  and  _543
REMARK  216  A    between atoms: _542  and  _545
REMARK  217  A    between atoms: _545  and  _546
REMARK  218  A    between atoms: _549  and  _551
REMARK  219  A    between atoms: _551  and  _552
REMARK  220  A    between atoms: _551  and  _554
REMARK  221  A    between atoms: _557  and  _559
REMARK  222  A    between atoms: _559  and  _560
REMARK  223  A    between atoms: _559  and  _562
REMARK  224  A    between atoms: _562  and  _563
REMARK  225  A    between atoms: _563  and  _565
REMARK  226  A    between atoms: _565  and  ZN_690
REMARK  227  A    between atoms: _566  and  _568
REMARK  228  A    between atoms: _568  and  _569
REMARK  229  A    between atoms: _568  and  _571
REMARK  230  A    between atoms: _571  and  _572
REMARK  231  A    between atoms: _572  and  ZN_690
REMARK  232  A    between atoms: _573  and  _575
REMARK  233  A    between atoms: _575  and  _576
REMARK  234  A    between atoms: _575  and  _578
REMARK  235  A    between atoms: _578  and  _579
REMARK  236  A    between atoms: _584  and  _585
REMARK  237  A    between atoms: _587  and  _589
REMARK  238  A    between atoms: _589  and  _590
REMARK  239  A    between atoms: _589  and  _592
REMARK  240  A    between atoms: _592  and  _593
REMARK  241  A    between atoms: _599  and  _601
REMARK  242  A    between atoms: _601  and  _602
REMARK  243  A    between atoms: _601  and  _604
REMARK  244  A    between atoms: _604  and  _605
REMARK  245  A    between atoms: _615  and  _617
REMARK  246  A    between atoms: _617  and  _618
REMARK  247  A    between atoms: _617  and  _620
REMARK  248  A    between atoms: _620  and  _621
REMARK  249  A    between atoms: _621  and  _622
REMARK  250  A    between atoms: _627  and  _629
REMARK  251  A    between atoms: _629  and  _630
REMARK  252  A    between atoms: _629  and  _632
REMARK  253  A    between atoms: _632  and  _633
REMARK  254  A    between atoms: _636  and  _638
REMARK  255  A    between atoms: _638  and  _639
REMARK  256  A    between atoms: _638  and  _641
REMARK  257  A    between atoms: _641  and  _642
REMARK  258  A    between atoms: _642  and  _643
REMARK  259  A    between atoms: _643  and  _644
REMARK  260  A    between atoms: _644  and  _645
REMARK  261  A    between atoms: _649  and  _651
REMARK  262  A    between atoms: _651  and  _652
REMARK  263  A    between atoms: _651  and  _654
REMARK  264  A    between atoms: _654  and  _655
REMARK  265  A    between atoms: _655  and  _656
REMARK  266  A    between atoms: _656  and  _657
REMARK  267  A    between atoms: _657  and  _658
REMARK  268  A    between atoms: _662  and  _664
REMARK  269  A    between atoms: _664  and  _665
REMARK  270  A    between atoms: _664  and  _667
REMARK  271  A    between atoms: _667  and  _668
REMARK  272  A    between atoms: _673  and  _674
REMARK  273  A    between atoms: _676  and  _678
REMARK  274  A    between atoms: _678  and  _679
REMARK  275  A    between atoms: _678  and  _681
REMARK  276  A    between atoms: _681  and  _682
REMARK  277  A    between atoms: _687  and  _688
REMARK                            x       y       z     vdW  Elec       q    Type
REMARK                         _______ _______ _______ _____ _____    ______ ____
ROOT
ATOM      1  O   HOH     1     184.973 126.186  21.060  0.00  0.00    +0.000 OA
ENDROOT
TORSDOF 0
REMARK  Name = ../refined-set-2016/1o1s/1o1s_pocket.pdb
REMARK  277 active torsions:
REMARK  status: ('A' for Active; 'I' for Inactive)
REMARK    1  A    between atoms: _1  and  _3
REMARK    2  A    between atoms: _3  and  _4
REMARK    3  A    between atoms: _7  and  _9
REMARK    4  A    between atoms: _9  and  _10
REMARK    5  A    between atoms: _9  and  _12
REMARK    6  A    between atoms: _12  and  _13
REMARK    7  A    between atoms: _18  and  _19
REMARK    8  A    between atoms: _21  and  _23
REMARK    9  A    between atoms: _23  and  _24
REMARK   10  A    between atoms: _23  and  _26
REMARK   11  A    between atoms: _26  and  _27
REMARK   12  A    between atoms: _27  and  _28
REMARK   13  A    between atoms: _28  and  _29
REMARK   14  A    between atoms: _29  and  _30
REMARK   15  A    between atoms: _34  and  _36
REMARK   16  A    between atoms: _36  and  _37
REMARK   17  A    between atoms: _36  and  _39
REMARK   18  A    between atoms: _39  and  _40
REMARK   19  A    between atoms: _45  and  _47
REMARK   20  A    between atoms: _47  and  _48
REMARK   21  A    between atoms: _47  and  _50
REMARK   22  A    between atoms: _50  and  _51
REMARK   23  A    between atoms: _56  and  _57
REMARK   24  A    between atoms: _59  and  _61
REMARK   25  A    between atoms: _61  and  _62
REMARK   26  A    between atoms: _61  and  _64
REMARK   27  A    between atoms: _64  and  _65
REMARK   28  A    between atoms: _65  and  _66
REMARK   29  A    between atoms: _71  and  _73
REMARK   30  A    between atoms: _73  and  _74
REMARK   31  A    between atoms: _73  and  _76
REMARK   32  A    between atoms: _76  and  _77
REMARK   33  A    between atoms: _80  and  _82
REMARK   34  A    between atoms: _82  and  _83
REMARK   35  A    between atoms: _82  and  _85
REMARK   36  A    between atoms: _85  and  _86
REMARK   37  A    between atoms: _86  and  _87
REMARK   38  A    between atoms: _87  and  _88
REMARK   39  A    between atoms: _88  and  _89
REMARK   40  A    between atoms: _93  and  _95
REMARK   41  A    between atoms: _95  and  _96
REMARK   42  A    between atoms: _95  and  _98
REMARK   43  A    between atoms: _98  and  _99
REMARK   44  A    between atoms: _104  and  _106
REMARK   45  A    between atoms: _106  and  _107
REMARK   46  A    between atoms: _106  and  _109
REMARK   47  A    between atoms: _109  and  _110
REMARK   48  A    between atoms: _115  and  _116
REMARK   49  A    between atoms: _118  and  _120
REMARK   50  A    between atoms: _120  and  _121
REMARK   51  A    between atoms: _120  and  _123
REMARK   52  A    between atoms: _123  and  _124
REMARK   53  A    between atoms: _129  and  _131
REMARK   54  A    between atoms: _131  and  _132
REMARK   55  A    between atoms: _135  and  _137
REMARK   56  A    between atoms: _137  and  _138
REMARK   57  A    between atoms: _137  and  _140
REMARK   58  A    between atoms: _140  and  _141
REMARK   59  A    between atoms: _141  and  _142
REMARK   60  A    between atoms: _147  and  _149
REMARK   61  A    between atoms: _149  and  _150
REMARK   62  A    between atoms: _149  and  _152
REMARK   63  A    between atoms: _152  and  _153
REMARK   64  A    between atoms: _155  and  _157
REMARK   65  A    between atoms: _157  and  _158
REMARK   66  A    between atoms: _157  and  _160
REMARK   67  A    between atoms: _160  and  _161
REMARK   68  A    between atoms: _164  and  _166
REMARK   69  A    between atoms: _166  and  _167
REMARK   70  A    between atoms: _170  and  _172
REMARK   71  A    between atoms: _172  and  _173
REMARK   72  A    between atoms: _172  and  _175
REMARK   73  A    between atoms: _175  and  _176
REMARK   74  A    between atoms: _178  and  _180
REMARK   75  A    between atoms: _180  and  _181
REMARK   76  A    between atoms: _180  and  _183
REMARK   77  A    between atoms: _183  and  _184
REMARK   78  A    between atoms: _194  and  _196
REMARK   79  A    between atoms: _196  and  _197
REMARK   80  A    between atoms: _196  and  _199
REMARK   81  A    between atoms: _199  and  _200
REMARK   82  A    between atoms: _210  and  _212
REMARK   83  A    between atoms: _212  and  _213
REMARK   84  A    between atoms: _212  and  _215
REMARK   85  A    between atoms: _215  and  _216
REMARK   86  A    between atoms: _221  and  _223
REMARK   87  A    between atoms: _223  and  _224
REMARK   88  A    between atoms: _223  and  _226
REMARK   89  A    between atoms: _226  and  _227
REMARK   90  A    between atoms: _230  and  _232
REMARK   91  A    between atoms: _232  and  _233
REMARK   92  A    between atoms: _237  and  _238
REMARK   93  A    between atoms: _243  and  _245
REMARK   94  A    between atoms: _245  and  _246
REMARK   95  A    between atoms: _245  and  _248
REMARK   96  A    between atoms: _248  and  _249
REMARK   97  A    between atoms: _252  and  _254
REMARK   98  A    between atoms: _254  and  _255
REMARK   99  A    between atoms: _254  and  _257
REMARK  100  A    between atoms: _257  and  _258
REMARK  101  A    between atoms: _263  and  _264
REMARK  102  A    between atoms: _266  and  _268
REMARK  103  A    between atoms: _268  and  _269
REMARK  104  A    between atoms: _272  and  _274
REMARK  105  A    between atoms: _274  and  _275
REMARK  106  A    between atoms: _274  and  _277
REMARK  107  A    between atoms: _277  and  _278
REMARK  108  A    between atoms: _278  and  _279
REMARK  109  A    between atoms: _281  and  _283
REMARK  110  A    between atoms: _283  and  _284
REMARK  111  A    between atoms: _283  and  _286
REMARK  112  A    between atoms: _286  and  _287
REMARK  113  A    between atoms: _292  and  _294
REMARK  114  A    between atoms: _294  and  _295
REMARK  115  A    between atoms: _294  and  _297
REMARK  116  A    between atoms: _297  and  _298
REMARK  117  A    between atoms: _298  and  _299
REMARK  118  A    between atoms: _302  and  _304
REMARK  119  A    between atoms: _304  and  _305
REMARK  120  A    between atoms: _304  and  _307
REMARK  121  A    between atoms: _307  and  _308
REMARK  122  A    between atoms: _311  and  _313
REMARK  123  A    between atoms: _313  and  _314
REMARK  124  A    between atoms: _313  and  _316
REMARK  125  A    between atoms: _319  and  _321
REMARK  126  A    between atoms: _321  and  _322
REMARK  127  A    between atoms: _321  and  _324
REMARK  128  A    between atoms: _324  and  _325
REMARK  129  A    between atoms: _325  and  _326
REMARK  130  A    between atoms: _326  and  _327
REMARK  131  A    between atoms: _336  and  _338
REMARK  132  A    between atoms: _338  and  _339
REMARK  133  A    between atoms: _338  and  _341
REMARK  134  A    between atoms: _341  and  _342
REMARK  135  A    between atoms: _344  and  _346
REMARK  136  A    between atoms: _346  and  _347
REMARK  137  A    between atoms: _346  and  _349
REMARK  138  A    between atoms: _349  and  _350
REMARK  139  A    between atoms: _355  and  _356
REMARK  140  A    between atoms: _358  and  _360
REMARK  141  A    between atoms: _360  and  _361
REMARK  142  A    between atoms: _360  and  _363
REMARK  143  A    between atoms: _365  and  _367
REMARK  144  A    between atoms: _367  and  _368
REMARK  145  A    between atoms: _370  and  _372
REMARK  146  A    between atoms: _372  and  _373
REMARK  147  A    between atoms: _372  and  _375
REMARK  148  A    between atoms: _375  and  _376
REMARK  149  A    between atoms: _376  and  _377
REMARK  150  A    between atoms: _379  and  _381
REMARK  151  A    between atoms: _381  and  _382
REMARK  152  A    between atoms: _381  and  _384
REMARK  153  A    between atoms: _384  and  _385
REMARK  154  A    between atoms: _385  and  _386
REMARK  155  A    between atoms: _389  and  _391
REMARK  156  A    between atoms: _391  and  _392
REMARK  157  A    between atoms: _395  and  _397
REMARK  158  A    between atoms: _397  and  _398
REMARK  159  A    between atoms: _397  and  _400
REMARK  160  A    between atoms: _400  and  _401
REMARK  161  A    between atoms: _406  and  _408
REMARK  162  A    between atoms: _408  and  _409
REMARK  163  A    between atoms: _411  and  _413
REMARK  164  A    between atoms: _413  and  _414
REMARK  165  A    between atoms: _416  and  _418
REMARK  166  A    between atoms: _418  and  _419
REMARK  167  A    between atoms: _418  and  _421
REMARK  168  A    between atoms: _421  and  _422
REMARK  169  A    between atoms: _427  and  _428
REMARK  170  A    between atoms: _430  and  _432
REMARK  171  A    between atoms: _432  and  _433
REMARK  172  A    between atoms: _432  and  _435
REMARK  173  A    between atoms: _435  and  _436
REMARK  174  A    between atoms: _439  and  _441
REMARK  175  A    between atoms: _441  and  _442
REMARK  176  A    between atoms: _441  and  _444
REMARK  177  A    between atoms: _444  and  _445
REMARK  178  A    between atoms: _451  and  _453
REMARK  179  A    between atoms: _453  and  _454
REMARK  180  A    between atoms: _453  and  _456
REMARK  181  A    between atoms: _458  and  _460
REMARK  182  A    between atoms: _460  and  _461
REMARK  183  A    between atoms: _463  and  _465
REMARK  184  A    between atoms: _465  and  _466
REMARK  185  A    between atoms: _465  and  _468
REMARK  186  A    between atoms: _468  and  _469
REMARK  187  A    between atoms: _475  and  _477
REMARK  188  A    between atoms: _477  and  _478
REMARK  189  A    between atoms: _477  and  _480
REMARK  190  A    between atoms: _480  and  _481
REMARK  191  A    between atoms: _481  and  _482
REMARK  192  A    between atoms: _487  and  _489
REMARK  193  A    between atoms: _489  and  _490
REMARK  194  A    between atoms: _492  and  _494
REMARK  195  A    between atoms: _494  and  _495
REMARK  196  A    between atoms: _494  and  _497
REMARK  197  A    between atoms: _497  and  _498
REMARK  198  A    between atoms: _498  and  _499
REMARK  199  A    between atoms: _499  and  _500
REMARK  200  A    between atoms: _509  and  _511
REMARK  201  A    between atoms: _511  and  _512
REMARK  202  A    between atoms: _511  and  _514
REMARK  203  A    between atoms: _516  and  _518
REMARK  204  A    between atoms: _518  and  _519
REMARK  205  A    between atoms: _518  and  _521
REMARK  206  A    between atoms: _521  and  _522
REMARK  207  A    between atoms: _527  and  _529
REMARK  208  A    between atoms: _529  and  _530
REMARK  209  A    between atoms: _529  and  _532
REMARK  210  A    between atoms: _532  and  _533
REMARK  211  A    between atoms: _533  and  _534
REMARK  212  A    between atoms: _534  and  _535
REMARK  213  A    between atoms: _535  and  _536
REMARK  214  A    between atoms: _540  and  _542
REMARK  215  A    between atoms: _542  and  _543
REMARK  216  A    between atoms: _542  and  _545
REMARK  217  A    between atoms: _545  and  _546
REMARK  218  A    between atoms: _549  and  _551
REMARK  219  A    between atoms: _551  and  _552
REMARK  220  A    between atoms: _551  and  _554
REMARK  221  A    between atoms: _557  and  _559
REMARK  222  A    between atoms: _559  and  _560
REMARK  223  A    between atoms: _559  and  _562
REMARK  224  A    between atoms: _562  and  _563
REMARK  225  A    between atoms: _563  and  _565
REMARK  226  A    between atoms: _565  and  ZN_690
REMARK  227  A    between atoms: _566  and  _568
REMARK  228  A    between atoms: _568  and  _569
REMARK  229  A    between atoms: _568  and  _571
REMARK  230  A    between atoms: _571  and  _572
REMARK  231  A    between atoms: _572  and  ZN_690
REMARK  232  A    between atoms: _573  and  _575
REMARK  233  A    between atoms: _575  and  _576
REMARK  234  A    between atoms: _575  and  _578
REMARK  235  A    between atoms: _578  and  _579
REMARK  236  A    between atoms: _584  and  _585
REMARK  237  A    between atoms: _587  and  _589
REMARK  238  A    between atoms: _589  and  _590
REMARK  239  A    between atoms: _589  and  _592
REMARK  240  A    between atoms: _592  and  _593
REMARK  241  A    between atoms: _599  and  _601
REMARK  242  A    between atoms: _601  and  _602
REMARK  243  A    between atoms: _601  and  _604
REMARK  244  A    between atoms: _604  and  _605
REMARK  245  A    between atoms: _615  and  _617
REMARK  246  A    between atoms: _617  and  _618
REMARK  247  A    between atoms: _617  and  _620
REMARK  248  A    between atoms: _620  and  _621
REMARK  249  A    between atoms: _621  and  _622
REMARK  250  A    between atoms: _627  and  _629
REMARK  251  A    between atoms: _629  and  _630
REMARK  252  A    between atoms: _629  and  _632
REMARK  253  A    between atoms: _632  and  _633
REMARK  254  A    between atoms: _636  and  _638
REMARK  255  A    between atoms: _638  and  _639
REMARK  256  A    between atoms: _638  and  _641
REMARK  257  A    between atoms: _641  and  _642
REMARK  258  A    between atoms: _642  and  _643
REMARK  259  A    between atoms: _643  and  _644
REMARK  260  A    between atoms: _644  and  _645
REMARK  261  A    between atoms: _649  and  _651
REMARK  262  A    between atoms: _651  and  _652
REMARK  263  A    between atoms: _651  and  _654
REMARK  264  A    between atoms: _654  and  _655
REMARK  265  A    between atoms: _655  and  _656
REMARK  266  A    between atoms: _656  and  _657
REMARK  267  A    between atoms: _657  and  _658
REMARK  268  A    between atoms: _662  and  _664
REMARK  269  A    between atoms: _664  and  _665
REMARK  270  A    between atoms: _664  and  _667
REMARK  271  A    between atoms: _667  and  _668
REMARK  272  A    between atoms: _673  and  _674
REMARK  273  A    between atoms: _676  and  _678
REMARK  274  A    between atoms: _678  and  _679
REMARK  275  A    between atoms: _678  and  _681
REMARK  276  A    between atoms: _681  and  _682
REMARK  277  A    between atoms: _687  and  _688
REMARK                            x       y       z     vdW  Elec       q    Type
REMARK                         _______ _______ _______ _____ _____    ______ ____
ROOT
ATOM      1  O   HOH     1     195.312 125.862  37.901  0.00  0.00    +0.000 OA
ENDROOT
TORSDOF 0
REMARK  Name = ../refined-set-2016/1o1s/1o1s_pocket.pdb
REMARK  277 active torsions:
REMARK  status: ('A' for Active; 'I' for Inactive)
REMARK    1  A    between atoms: _1  and  _3
REMARK    2  A    between atoms: _3  and  _4
REMARK    3  A    between atoms: _7  and  _9
REMARK    4  A    between atoms: _9  and  _10
REMARK    5  A    between atoms: _9  and  _12
REMARK    6  A    between atoms: _12  and  _13
REMARK    7  A    between atoms: _18  and  _19
REMARK    8  A    between atoms: _21  and  _23
REMARK    9  A    between atoms: _23  and  _24
REMARK   10  A    between atoms: _23  and  _26
REMARK   11  A    between atoms: _26  and  _27
REMARK   12  A    between atoms: _27  and  _28
REMARK   13  A    between atoms: _28  and  _29
REMARK   14  A    between atoms: _29  and  _30
REMARK   15  A    between atoms: _34  and  _36
REMARK   16  A    between atoms: _36  and  _37
REMARK   17  A    between atoms: _36  and  _39
REMARK   18  A    between atoms: _39  and  _40
REMARK   19  A    between atoms: _45  and  _47
REMARK   20  A    between atoms: _47  and  _48
REMARK   21  A    between atoms: _47  and  _50
REMARK   22  A    between atoms: _50  and  _51
REMARK   23  A    between atoms: _56  and  _57
REMARK   24  A    between atoms: _59  and  _61
REMARK   25  A    between atoms: _61  and  _62
REMARK   26  A    between atoms: _61  and  _64
REMARK   27  A    between atoms: _64  and  _65
REMARK   28  A    between atoms: _65  and  _66
REMARK   29  A    between atoms: _71  and  _73
REMARK   30  A    between atoms: _73  and  _74
REMARK   31  A    between atoms: _73  and  _76
REMARK   32  A    between atoms: _76  and  _77
REMARK   33  A    between atoms: _80  and  _82
REMARK   34  A    between atoms: _82  and  _83
REMARK   35  A    between atoms: _82  and  _85
REMARK   36  A    between atoms: _85  and  _86
REMARK   37  A    between atoms: _86  and  _87
REMARK   38  A    between atoms: _87  and  _88
REMARK   39  A    between atoms: _88  and  _89
REMARK   40  A    between atoms: _93  and  _95
REMARK   41  A    between atoms: _95  and  _96
REMARK   42  A    between atoms: _95  and  _98
REMARK   43  A    between atoms: _98  and  _99
REMARK   44  A    between atoms: _104  and  _106
REMARK   45  A    between atoms: _106  and  _107
REMARK   46  A    between atoms: _106  and  _109
REMARK   47  A    between atoms: _109  and  _110
REMARK   48  A    between atoms: _115  and  _116
REMARK   49  A    between atoms: _118  and  _120
REMARK   50  A    between atoms: _120  and  _121
REMARK   51  A    between atoms: _120  and  _123
REMARK   52  A    between atoms: _123  and  _124
REMARK   53  A    between atoms: _129  and  _131
REMARK   54  A    between atoms: _131  and  _132
REMARK   55  A    between atoms: _135  and  _137
REMARK   56  A    between atoms: _137  and  _138
REMARK   57  A    between atoms: _137  and  _140
REMARK   58  A    between atoms: _140  and  _141
REMARK   59  A    between atoms: _141  and  _142
REMARK   60  A    between atoms: _147  and  _149
REMARK   61  A    between atoms: _149  and  _150
REMARK   62  A    between atoms: _149  and  _152
REMARK   63  A    between atoms: _152  and  _153
REMARK   64  A    between atoms: _155  and  _157
REMARK   65  A    between atoms: _157  and  _158
REMARK   66  A    between atoms: _157  and  _160
REMARK   67  A    between atoms: _160  and  _161
REMARK   68  A    between atoms: _164  and  _166
REMARK   69  A    between atoms: _166  and  _167
REMARK   70  A    between atoms: _170  and  _172
REMARK   71  A    between atoms: _172  and  _173
REMARK   72  A    between atoms: _172  and  _175
REMARK   73  A    between atoms: _175  and  _176
REMARK   74  A    between atoms: _178  and  _180
REMARK   75  A    between atoms: _180  and  _181
REMARK   76  A    between atoms: _180  and  _183
REMARK   77  A    between atoms: _183  and  _184
REMARK   78  A    between atoms: _194  and  _196
REMARK   79  A    between atoms: _196  and  _197
REMARK   80  A    between atoms: _196  and  _199
REMARK   81  A    between atoms: _199  and  _200
REMARK   82  A    between atoms: _210  and  _212
REMARK   83  A    between atoms: _212  and  _213
REMARK   84  A    between atoms: _212  and  _215
REMARK   85  A    between atoms: _215  and  _216
REMARK   86  A    between atoms: _221  and  _223
REMARK   87  A    between atoms: _223  and  _224
REMARK   88  A    between atoms: _223  and  _226
REMARK   89  A    between atoms: _226  and  _227
REMARK   90  A    between atoms: _230  and  _232
REMARK   91  A    between atoms: _232  and  _233
REMARK   92  A    between atoms: _237  and  _238
REMARK   93  A    between atoms: _243  and  _245
REMARK   94  A    between atoms: _245  and  _246
REMARK   95  A    between atoms: _245  and  _248
REMARK   96  A    between atoms: _248  and  _249
REMARK   97  A    between atoms: _252  and  _254
REMARK   98  A    between atoms: _254  and  _255
REMARK   99  A    between atoms: _254  and  _257
REMARK  100  A    between atoms: _257  and  _258
REMARK  101  A    between atoms: _263  and  _264
REMARK  102  A    between atoms: _266  and  _268
REMARK  103  A    between atoms: _268  and  _269
REMARK  104  A    between atoms: _272  and  _274
REMARK  105  A    between atoms: _274  and  _275
REMARK  106  A    between atoms: _274  and  _277
REMARK  107  A    between atoms: _277  and  _278
REMARK  108  A    between atoms: _278  and  _279
REMARK  109  A    between atoms: _281  and  _283
REMARK  110  A    between atoms: _283  and  _284
REMARK  111  A    between atoms: _283  and  _286
REMARK  112  A    between atoms: _286  and  _287
REMARK  113  A    between atoms: _292  and  _294
REMARK  114  A    between atoms: _294  and  _295
REMARK  115  A    between atoms: _294  and  _297
REMARK  116  A    between atoms: _297  and  _298
REMARK  117  A    between atoms: _298  and  _299
REMARK  118  A    between atoms: _302  and  _304
REMARK  119  A    between atoms: _304  and  _305
REMARK  120  A    between atoms: _304  and  _307
REMARK  121  A    between atoms: _307  and  _308
REMARK  122  A    between atoms: _311  and  _313
REMARK  123  A    between atoms: _313  and  _314
REMARK  124  A    between atoms: _313  and  _316
REMARK  125  A    between atoms: _319  and  _321
REMARK  126  A    between atoms: _321  and  _322
REMARK  127  A    between atoms: _321  and  _324
REMARK  128  A    between atoms: _324  and  _325
REMARK  129  A    between atoms: _325  and  _326
REMARK  130  A    between atoms: _326  and  _327
REMARK  131  A    between atoms: _336  and  _338
REMARK  132  A    between atoms: _338  and  _339
REMARK  133  A    between atoms: _338  and  _341
REMARK  134  A    between atoms: _341  and  _342
REMARK  135  A    between atoms: _344  and  _346
REMARK  136  A    between atoms: _346  and  _347
REMARK  137  A    between atoms: _346  and  _349
REMARK  138  A    between atoms: _349  and  _350
REMARK  139  A    between atoms: _355  and  _356
REMARK  140  A    between atoms: _358  and  _360
REMARK  141  A    between atoms: _360  and  _361
REMARK  142  A    between atoms: _360  and  _363
REMARK  143  A    between atoms: _365  and  _367
REMARK  144  A    between atoms: _367  and  _368
REMARK  145  A    between atoms: _370  and  _372
REMARK  146  A    between atoms: _372  and  _373
REMARK  147  A    between atoms: _372  and  _375
REMARK  148  A    between atoms: _375  and  _376
REMARK  149  A    between atoms: _376  and  _377
REMARK  150  A    between atoms: _379  and  _381
REMARK  151  A    between atoms: _381  and  _382
REMARK  152  A    between atoms: _381  and  _384
REMARK  153  A    between atoms: _384  and  _385
REMARK  154  A    between atoms: _385  and  _386
REMARK  155  A    between atoms: _389  and  _391
REMARK  156  A    between atoms: _391  and  _392
REMARK  157  A    between atoms: _395  and  _397
REMARK  158  A    between atoms: _397  and  _398
REMARK  159  A    between atoms: _397  and  _400
REMARK  160  A    between atoms: _400  and  _401
REMARK  161  A    between atoms: _406  and  _408
REMARK  162  A    between atoms: _408  and  _409
REMARK  163  A    between atoms: _411  and  _413
REMARK  164  A    between atoms: _413  and  _414
REMARK  165  A    between atoms: _416  and  _418
REMARK  166  A    between atoms: _418  and  _419
REMARK  167  A    between atoms: _418  and  _421
REMARK  168  A    between atoms: _421  and  _422
REMARK  169  A    between atoms: _427  and  _428
REMARK  170  A    between atoms: _430  and  _432
REMARK  171  A    between atoms: _432  and  _433
REMARK  172  A    between atoms: _432  and  _435
REMARK  173  A    between atoms: _435  and  _436
REMARK  174  A    between atoms: _439  and  _441
REMARK  175  A    between atoms: _441  and  _442
REMARK  176  A    between atoms: _441  and  _444
REMARK  177  A    between atoms: _444  and  _445
REMARK  178  A    between atoms: _451  and  _453
REMARK  179  A    between atoms: _453  and  _454
REMARK  180  A    between atoms: _453  and  _456
REMARK  181  A    between atoms: _458  and  _460
REMARK  182  A    between atoms: _460  and  _461
REMARK  183  A    between atoms: _463  and  _465
REMARK  184  A    between atoms: _465  and  _466
REMARK  185  A    between atoms: _465  and  _468
REMARK  186  A    between atoms: _468  and  _469
REMARK  187  A    between atoms: _475  and  _477
REMARK  188  A    between atoms: _477  and  _478
REMARK  189  A    between atoms: _477  and  _480
REMARK  190  A    between atoms: _480  and  _481
REMARK  191  A    between atoms: _481  and  _482
REMARK  192  A    between atoms: _487  and  _489
REMARK  193  A    between atoms: _489  and  _490
REMARK  194  A    between atoms: _492  and  _494
REMARK  195  A    between atoms: _494  and  _495
REMARK  196  A    between atoms: _494  and  _497
REMARK  197  A    between atoms: _497  and  _498
REMARK  198  A    between atoms: _498  and  _499
REMARK  199  A    between atoms: _499  and  _500
REMARK  200  A    between atoms: _509  and  _511
REMARK  201  A    between atoms: _511  and  _512
REMARK  202  A    between atoms: _511  and  _514
REMARK  203  A    between atoms: _516  and  _518
REMARK  204  A    between atoms: _518  and  _519
REMARK  205  A    between atoms: _518  and  _521
REMARK  206  A    between atoms: _521  and  _522
REMARK  207  A    between atoms: _527  and  _529
REMARK  208  A    between atoms: _529  and  _530
REMARK  209  A    between atoms: _529  and  _532
REMARK  210  A    between atoms: _532  and  _533
REMARK  211  A    between atoms: _533  and  _534
REMARK  212  A    between atoms: _534  and  _535
REMARK  213  A    between atoms: _535  and  _536
REMARK  214  A    between atoms: _540  and  _542
REMARK  215  A    between atoms: _542  and  _543
REMARK  216  A    between atoms: _542  and  _545
REMARK  217  A    between atoms: _545  and  _546
REMARK  218  A    between atoms: _549  and  _551
REMARK  219  A    between atoms: _551  and  _552
REMARK  220  A    between atoms: _551  and  _554
REMARK  221  A    between atoms: _557  and  _559
REMARK  222  A    between atoms: _559  and  _560
REMARK  223  A    between atoms: _559  and  _562
REMARK  224  A    between atoms: _562  and  _563
REMARK  225  A    between atoms: _563  and  _565
REMARK  226  A    between atoms: _565  and  ZN_690
REMARK  227  A    between atoms: _566  and  _568
REMARK  228  A    between atoms: _568  and  _569
REMARK  229  A    between atoms: _568  and  _571
REMARK  230  A    between atoms: _571  and  _572
REMARK  231  A    between atoms: _572  and  ZN_690
REMARK  232  A    between atoms: _573  and  _575
REMARK  233  A    between atoms: _575  and  _576
REMARK  234  A    between atoms: _575  and  _578
REMARK  235  A    between atoms: _578  and  _579
REMARK  236  A    between atoms: _584  and  _585
REMARK  237  A    between atoms: _587  and  _589
REMARK  238  A    between atoms: _589  and  _590
REMARK  239  A    between atoms: _589  and  _592
REMARK  240  A    between atoms: _592  and  _593
REMARK  241  A    between atoms: _599  and  _601
REMARK  242  A    between atoms: _601  and  _602
REMARK  243  A    between atoms: _601  and  _604
REMARK  244  A    between atoms: _604  and  _605
REMARK  245  A    between atoms: _615  and  _617
REMARK  246  A    between atoms: _617  and  _618
REMARK  247  A    between atoms: _617  and  _620
REMARK  248  A    between atoms: _620  and  _621
REMARK  249  A    between atoms: _621  and  _622
REMARK  250  A    between atoms: _627  and  _629
REMARK  251  A    between atoms: _629  and  _630
REMARK  252  A    between atoms: _629  and  _632
REMARK  253  A    between atoms: _632  and  _633
REMARK  254  A    between atoms: _636  and  _638
REMARK  255  A    between atoms: _638  and  _639
REMARK  256  A    between atoms: _638  and  _641
REMARK  257  A    between atoms: _641  and  _642
REMARK  258  A    between atoms: _642  and  _643
REMARK  259  A    between atoms: _643  and  _644
REMARK  260  A    between atoms: _644  and  _645
REMARK  261  A    between atoms: _649  and  _651
REMARK  262  A    between atoms: _651  and  _652
REMARK  263  A    between atoms: _651  and  _654
REMARK  264  A    between atoms: _654  and  _655
REMARK  265  A    between atoms: _655  and  _656
REMARK  266  A    between atoms: _656  and  _657
REMARK  267  A    between atoms: _657  and  _658
REMARK  268  A    between atoms: _662  and  _664
REMARK  269  A    between atoms: _664  and  _665
REMARK  270  A    between atoms: _664  and  _667
REMARK  271  A    between atoms: _667  and  _668
REMARK  272  A    between atoms: _673  and  _674
REMARK  273  A    between atoms: _676  and  _678
REMARK  274  A    between atoms: _678  and  _679
REMARK  275  A    between atoms: _678  and  _681
REMARK  276  A    between atoms: _681  and  _682
REMARK  277  A    between atoms: _687  and  _688
REMARK                            x       y       z     vdW  Elec       q    Type
REMARK                         _______ _______ _______ _____ _____    ______ ____
ROOT
ATOM      1  O   HOH     1     195.354 128.150  36.268  0.00  0.00    +0.000 OA
ENDROOT
TORSDOF 0
REMARK  Name = ../refined-set-2016/1o1s/1o1s_pocket.pdb
REMARK  277 active torsions:
REMARK  status: ('A' for Active; 'I' for Inactive)
REMARK    1  A    between atoms: _1  and  _3
REMARK    2  A    between atoms: _3  and  _4
REMARK    3  A    between atoms: _7  and  _9
REMARK    4  A    between atoms: _9  and  _10
REMARK    5  A    between atoms: _9  and  _12
REMARK    6  A    between atoms: _12  and  _13
REMARK    7  A    between atoms: _18  and  _19
REMARK    8  A    between atoms: _21  and  _23
REMARK    9  A    between atoms: _23  and  _24
REMARK   10  A    between atoms: _23  and  _26
REMARK   11  A    between atoms: _26  and  _27
REMARK   12  A    between atoms: _27  and  _28
REMARK   13  A    between atoms: _28  and  _29
REMARK   14  A    between atoms: _29  and  _30
REMARK   15  A    between atoms: _34  and  _36
REMARK   16  A    between atoms: _36  and  _37
REMARK   17  A    between atoms: _36  and  _39
REMARK   18  A    between atoms: _39  and  _40
REMARK   19  A    between atoms: _45  and  _47
REMARK   20  A    between atoms: _47  and  _48
REMARK   21  A    between atoms: _47  and  _50
REMARK   22  A    between atoms: _50  and  _51
REMARK   23  A    between atoms: _56  and  _57
REMARK   24  A    between atoms: _59  and  _61
REMARK   25  A    between atoms: _61  and  _62
REMARK   26  A    between atoms: _61  and  _64
REMARK   27  A    between atoms: _64  and  _65
REMARK   28  A    between atoms: _65  and  _66
REMARK   29  A    between atoms: _71  and  _73
REMARK   30  A    between atoms: _73  and  _74
REMARK   31  A    between atoms: _73  and  _76
REMARK   32  A    between atoms: _76  and  _77
REMARK   33  A    between atoms: _80  and  _82
REMARK   34  A    between atoms: _82  and  _83
REMARK   35  A    between atoms: _82  and  _85
REMARK   36  A    between atoms: _85  and  _86
REMARK   37  A    between atoms: _86  and  _87
REMARK   38  A    between atoms: _87  and  _88
REMARK   39  A    between atoms: _88  and  _89
REMARK   40  A    between atoms: _93  and  _95
REMARK   41  A    between atoms: _95  and  _96
REMARK   42  A    between atoms: _95  and  _98
REMARK   43  A    between atoms: _98  and  _99
REMARK   44  A    between atoms: _104  and  _106
REMARK   45  A    between atoms: _106  and  _107
REMARK   46  A    between atoms: _106  and  _109
REMARK   47  A    between atoms: _109  and  _110
REMARK   48  A    between atoms: _115  and  _116
REMARK   49  A    between atoms: _118  and  _120
REMARK   50  A    between atoms: _120  and  _121
REMARK   51  A    between atoms: _120  and  _123
REMARK   52  A    between atoms: _123  and  _124
REMARK   53  A    between atoms: _129  and  _131
REMARK   54  A    between atoms: _131  and  _132
REMARK   55  A    between atoms: _135  and  _137
REMARK   56  A    between atoms: _137  and  _138
REMARK   57  A    between atoms: _137  and  _140
REMARK   58  A    between atoms: _140  and  _141
REMARK   59  A    between atoms: _141  and  _142
REMARK   60  A    between atoms: _147  and  _149
REMARK   61  A    between atoms: _149  and  _150
REMARK   62  A    between atoms: _149  and  _152
REMARK   63  A    between atoms: _152  and  _153
REMARK   64  A    between atoms: _155  and  _157
REMARK   65  A    between atoms: _157  and  _158
REMARK   66  A    between atoms: _157  and  _160
REMARK   67  A    between atoms: _160  and  _161
REMARK   68  A    between atoms: _164  and  _166
REMARK   69  A    between atoms: _166  and  _167
REMARK   70  A    between atoms: _170  and  _172
REMARK   71  A    between atoms: _172  and  _173
REMARK   72  A    between atoms: _172  and  _175
REMARK   73  A    between atoms: _175  and  _176
REMARK   74  A    between atoms: _178  and  _180
REMARK   75  A    between atoms: _180  and  _181
REMARK   76  A    between atoms: _180  and  _183
REMARK   77  A    between atoms: _183  and  _184
REMARK   78  A    between atoms: _194  and  _196
REMARK   79  A    between atoms: _196  and  _197
REMARK   80  A    between atoms: _196  and  _199
REMARK   81  A    between atoms: _199  and  _200
REMARK   82  A    between atoms: _210  and  _212
REMARK   83  A    between atoms: _212  and  _213
REMARK   84  A    between atoms: _212  and  _215
REMARK   85  A    between atoms: _215  and  _216
REMARK   86  A    between atoms: _221  and  _223
REMARK   87  A    between atoms: _223  and  _224
REMARK   88  A    between atoms: _223  and  _226
REMARK   89  A    between atoms: _226  and  _227
REMARK   90  A    between atoms: _230  and  _232
REMARK   91  A    between atoms: _232  and  _233
REMARK   92  A    between atoms: _237  and  _238
REMARK   93  A    between atoms: _243  and  _245
REMARK   94  A    between atoms: _245  and  _246
REMARK   95  A    between atoms: _245  and  _248
REMARK   96  A    between atoms: _248  and  _249
REMARK   97  A    between atoms: _252  and  _254
REMARK   98  A    between atoms: _254  and  _255
REMARK   99  A    between atoms: _254  and  _257
REMARK  100  A    between atoms: _257  and  _258
REMARK  101  A    between atoms: _263  and  _264
REMARK  102  A    between atoms: _266  and  _268
REMARK  103  A    between atoms: _268  and  _269
REMARK  104  A    between atoms: _272  and  _274
REMARK  105  A    between atoms: _274  and  _275
REMARK  106  A    between atoms: _274  and  _277
REMARK  107  A    between atoms: _277  and  _278
REMARK  108  A    between atoms: _278  and  _279
REMARK  109  A    between atoms: _281  and  _283
REMARK  110  A    between atoms: _283  and  _284
REMARK  111  A    between atoms: _283  and  _286
REMARK  112  A    between atoms: _286  and  _287
REMARK  113  A    between atoms: _292  and  _294
REMARK  114  A    between atoms: _294  and  _295
REMARK  115  A    between atoms: _294  and  _297
REMARK  116  A    between atoms: _297  and  _298
REMARK  117  A    between atoms: _298  and  _299
REMARK  118  A    between atoms: _302  and  _304
REMARK  119  A    between atoms: _304  and  _305
REMARK  120  A    between atoms: _304  and  _307
REMARK  121  A    between atoms: _307  and  _308
REMARK  122  A    between atoms: _311  and  _313
REMARK  123  A    between atoms: _313  and  _314
REMARK  124  A    between atoms: _313  and  _316
REMARK  125  A    between atoms: _319  and  _321
REMARK  126  A    between atoms: _321  and  _322
REMARK  127  A    between atoms: _321  and  _324
REMARK  128  A    between atoms: _324  and  _325
REMARK  129  A    between atoms: _325  and  _326
REMARK  130  A    between atoms: _326  and  _327
REMARK  131  A    between atoms: _336  and  _338
REMARK  132  A    between atoms: _338  and  _339
REMARK  133  A    between atoms: _338  and  _341
REMARK  134  A    between atoms: _341  and  _342
REMARK  135  A    between atoms: _344  and  _346
REMARK  136  A    between atoms: _346  and  _347
REMARK  137  A    between atoms: _346  and  _349
REMARK  138  A    between atoms: _349  and  _350
REMARK  139  A    between atoms: _355  and  _356
REMARK  140  A    between atoms: _358  and  _360
REMARK  141  A    between atoms: _360  and  _361
REMARK  142  A    between atoms: _360  and  _363
REMARK  143  A    between atoms: _365  and  _367
REMARK  144  A    between atoms: _367  and  _368
REMARK  145  A    between atoms: _370  and  _372
REMARK  146  A    between atoms: _372  and  _373
REMARK  147  A    between atoms: _372  and  _375
REMARK  148  A    between atoms: _375  and  _376
REMARK  149  A    between atoms: _376  and  _377
REMARK  150  A    between atoms: _379  and  _381
REMARK  151  A    between atoms: _381  and  _382
REMARK  152  A    between atoms: _381  and  _384
REMARK  153  A    between atoms: _384  and  _385
REMARK  154  A    between atoms: _385  and  _386
REMARK  155  A    between atoms: _389  and  _391
REMARK  156  A    between atoms: _391  and  _392
REMARK  157  A    between atoms: _395  and  _397
REMARK  158  A    between atoms: _397  and  _398
REMARK  159  A    between atoms: _397  and  _400
REMARK  160  A    between atoms: _400  and  _401
REMARK  161  A    between atoms: _406  and  _408
REMARK  162  A    between atoms: _408  and  _409
REMARK  163  A    between atoms: _411  and  _413
REMARK  164  A    between atoms: _413  and  _414
REMARK  165  A    between atoms: _416  and  _418
REMARK  166  A    between atoms: _418  and  _419
REMARK  167  A    between atoms: _418  and  _421
REMARK  168  A    between atoms: _421  and  _422
REMARK  169  A    between atoms: _427  and  _428
REMARK  170  A    between atoms: _430  and  _432
REMARK  171  A    between atoms: _432  and  _433
REMARK  172  A    between atoms: _432  and  _435
REMARK  173  A    between atoms: _435  and  _436
REMARK  174  A    between atoms: _439  and  _441
REMARK  175  A    between atoms: _441  and  _442
REMARK  176  A    between atoms: _441  and  _444
REMARK  177  A    between atoms: _444  and  _445
REMARK  178  A    between atoms: _451  and  _453
REMARK  179  A    between atoms: _453  and  _454
REMARK  180  A    between atoms: _453  and  _456
REMARK  181  A    between atoms: _458  and  _460
REMARK  182  A    between atoms: _460  and  _461
REMARK  183  A    between atoms: _463  and  _465
REMARK  184  A    between atoms: _465  and  _466
REMARK  185  A    between atoms: _465  and  _468
REMARK  186  A    between atoms: _468  and  _469
REMARK  187  A    between atoms: _475  and  _477
REMARK  188  A    between atoms: _477  and  _478
REMARK  189  A    between atoms: _477  and  _480
REMARK  190  A    between atoms: _480  and  _481
REMARK  191  A    between atoms: _481  and  _482
REMARK  192  A    between atoms: _487  and  _489
REMARK  193  A    between atoms: _489  and  _490
REMARK  194  A    between atoms: _492  and  _494
REMARK  195  A    between atoms: _494  and  _495
REMARK  196  A    between atoms: _494  and  _497
REMARK  197  A    between atoms: _497  and  _498
REMARK  198  A    between atoms: _498  and  _499
REMARK  199  A    between atoms: _499  and  _500
REMARK  200  A    between atoms: _509  and  _511
REMARK  201  A    between atoms: _511  and  _512
REMARK  202  A    between atoms: _511  and  _514
REMARK  203  A    between atoms: _516  and  _518
REMARK  204  A    between atoms: _518  and  _519
REMARK  205  A    between atoms: _518  and  _521
REMARK  206  A    between atoms: _521  and  _522
REMARK  207  A    between atoms: _527  and  _529
REMARK  208  A    between atoms: _529  and  _530
REMARK  209  A    between atoms: _529  and  _532
REMARK  210  A    between atoms: _532  and  _533
REMARK  211  A    between atoms: _533  and  _534
REMARK  212  A    between atoms: _534  and  _535
REMARK  213  A    between atoms: _535  and  _536
REMARK  214  A    between atoms: _540  and  _542
REMARK  215  A    between atoms: _542  and  _543
REMARK  216  A    between atoms: _542  and  _545
REMARK  217  A    between atoms: _545  and  _546
REMARK  218  A    between atoms: _549  and  _551
REMARK  219  A    between atoms: _551  and  _552
REMARK  220  A    between atoms: _551  and  _554
REMARK  221  A    between atoms: _557  and  _559
REMARK  222  A    between atoms: _559  and  _560
REMARK  223  A    between atoms: _559  and  _562
REMARK  224  A    between atoms: _562  and  _563
REMARK  225  A    between atoms: _563  and  _565
REMARK  226  A    between atoms: _565  and  ZN_690
REMARK  227  A    between atoms: _566  and  _568
REMARK  228  A    between atoms: _568  and  _569
REMARK  229  A    between atoms: _568  and  _571
REMARK  230  A    between atoms: _571  and  _572
REMARK  231  A    between atoms: _572  and  ZN_690
REMARK  232  A    between atoms: _573  and  _575
REMARK  233  A    between atoms: _575  and  _576
REMARK  234  A    between atoms: _575  and  _578
REMARK  235  A    between atoms: _578  and  _579
REMARK  236  A    between atoms: _584  and  _585
REMARK  237  A    between atoms: _587  and  _589
REMARK  238  A    between atoms: _589  and  _590
REMARK  239  A    between atoms: _589  and  _592
REMARK  240  A    between atoms: _592  and  _593
REMARK  241  A    between atoms: _599  and  _601
REMARK  242  A    between atoms: _601  and  _602
REMARK  243  A    between atoms: _601  and  _604
REMARK  244  A    between atoms: _604  and  _605
REMARK  245  A    between atoms: _615  and  _617
REMARK  246  A    between atoms: _617  and  _618
REMARK  247  A    between atoms: _617  and  _620
REMARK  248  A    between atoms: _620  and  _621
REMARK  249  A    between atoms: _621  and  _622
REMARK  250  A    between atoms: _627  and  _629
REMARK  251  A    between atoms: _629  and  _630
REMARK  252  A    between atoms: _629  and  _632
REMARK  253  A    between atoms: _632  and  _633
REMARK  254  A    between atoms: _636  and  _638
REMARK  255  A    between atoms: _638  and  _639
REMARK  256  A    between atoms: _638  and  _641
REMARK  257  A    between atoms: _641  and  _642
REMARK  258  A    between atoms: _642  and  _643
REMARK  259  A    between atoms: _643  and  _644
REMARK  260  A    between atoms: _644  and  _645
REMARK  261  A    between atoms: _649  and  _651
REMARK  262  A    between atoms: _651  and  _652
REMARK  263  A    between atoms: _651  and  _654
REMARK  264  A    between atoms: _654  and  _655
REMARK  265  A    between atoms: _655  and  _656
REMARK  266  A    between atoms: _656  and  _657
REMARK  267  A    between atoms: _657  and  _658
REMARK  268  A    between atoms: _662  and  _664
REMARK  269  A    between atoms: _664  and  _665
REMARK  270  A    between atoms: _664  and  _667
REMARK  271  A    between atoms: _667  and  _668
REMARK  272  A    between atoms: _673  and  _674
REMARK  273  A    between atoms: _676  and  _678
REMARK  274  A    between atoms: _678  and  _679
REMARK  275  A    between atoms: _678  and  _681
REMARK  276  A    between atoms: _681  and  _682
REMARK  277  A    between atoms: _687  and  _688
REMARK                            x       y       z     vdW  Elec       q    Type
REMARK                         _______ _______ _______ _____ _____    ______ ____
ROOT
ATOM      1  O   HOH     1     191.789 124.964  35.195  0.00  0.00    +0.000 OA
ENDROOT
TORSDOF 0
