REMARK  Name = ../refined-set-2016/3drg/3drg_pocket.pdb
REMARK  413 active torsions:
REMARK  status: ('A' for Active; 'I' for Inactive)
REMARK    1  A    between atoms: _1  and  _3
REMARK    2  A    between atoms: _3  and  _4
REMARK    3  A    between atoms: _3  and  _6
REMARK    4  A    between atoms: _6  and  _7
REMARK    5  A    between atoms: _12  and  _13
REMARK    6  A    between atoms: _15  and  _17
REMARK    7  A    between atoms: _17  and  _18
REMARK    8  A    between atoms: _17  and  _20
REMARK    9  A    between atoms: _20  and  _21
REMARK   10  A    between atoms: _21  and  _22
REMARK   11  A    between atoms: _27  and  _29
REMARK   12  A    between atoms: _29  and  _30
REMARK   13  A    between atoms: _29  and  _32
REMARK   14  A    between atoms: _32  and  _33
REMARK   15  A    between atoms: _35  and  _37
REMARK   16  A    between atoms: _37  and  _38
REMARK   17  A    between atoms: _37  and  _40
REMARK   18  A    between atoms: _40  and  _41
REMARK   19  A    between atoms: _44  and  _46
REMARK   20  A    between atoms: _46  and  _47
REMARK   21  A    between atoms: _46  and  _49
REMARK   22  A    between atoms: _49  and  _50
REMARK   23  A    between atoms: _52  and  _54
REMARK   24  A    between atoms: _54  and  _55
REMARK   25  A    between atoms: _54  and  _57
REMARK   26  A    between atoms: _57  and  _58
REMARK   27  A    between atoms: _61  and  _63
REMARK   28  A    between atoms: _63  and  _64
REMARK   29  A    between atoms: _63  and  _66
REMARK   30  A    between atoms: _66  and  _67
REMARK   31  A    between atoms: _69  and  _71
REMARK   32  A    between atoms: _71  and  _72
REMARK   33  A    between atoms: _74  and  _76
REMARK   34  A    between atoms: _76  and  _77
REMARK   35  A    between atoms: _76  and  _79
REMARK   36  A    between atoms: _79  and  _80
REMARK   37  A    between atoms: _82  and  _84
REMARK   38  A    between atoms: _84  and  _85
REMARK   39  A    between atoms: _84  and  _87
REMARK   40  A    between atoms: _87  and  _88
REMARK   41  A    between atoms: _93  and  _95
REMARK   42  A    between atoms: _95  and  _96
REMARK   43  A    between atoms: _95  and  _98
REMARK   44  A    between atoms: _98  and  _99
REMARK   45  A    between atoms: _102  and  _104
REMARK   46  A    between atoms: _104  and  _105
REMARK   47  A    between atoms: _108  and  _110
REMARK   48  A    between atoms: _110  and  _111
REMARK   49  A    between atoms: _110  and  _113
REMARK   50  A    between atoms: _113  and  _114
REMARK   51  A    between atoms: _117  and  _119
REMARK   52  A    between atoms: _119  and  _120
REMARK   53  A    between atoms: _119  and  _122
REMARK   54  A    between atoms: _122  and  _123
REMARK   55  A    between atoms: _129  and  _131
REMARK   56  A    between atoms: _131  and  _132
REMARK   57  A    between atoms: _135  and  _137
REMARK   58  A    between atoms: _137  and  _138
REMARK   59  A    between atoms: _137  and  _140
REMARK   60  A    between atoms: _140  and  _141
REMARK   61  A    between atoms: _144  and  _146
REMARK   62  A    between atoms: _146  and  _147
REMARK   63  A    between atoms: _146  and  _149
REMARK   64  A    between atoms: _149  and  _150
REMARK   65  A    between atoms: _152  and  _154
REMARK   66  A    between atoms: _154  and  _155
REMARK   67  A    between atoms: _157  and  _159
REMARK   68  A    between atoms: _159  and  _160
REMARK   69  A    between atoms: _162  and  _164
REMARK   70  A    between atoms: _164  and  _165
REMARK   71  A    between atoms: _164  and  _167
REMARK   72  A    between atoms: _167  and  _168
REMARK   73  A    between atoms: _168  and  _169
REMARK   74  A    between atoms: _174  and  _176
REMARK   75  A    between atoms: _176  and  _177
REMARK   76  A    between atoms: _176  and  _179
REMARK   77  A    between atoms: _179  and  _180
REMARK   78  A    between atoms: _183  and  _185
REMARK   79  A    between atoms: _185  and  _186
REMARK   80  A    between atoms: _188  and  _190
REMARK   81  A    between atoms: _190  and  _191
REMARK   82  A    between atoms: _190  and  _193
REMARK   83  A    between atoms: _193  and  _194
REMARK   84  A    between atoms: _197  and  _199
REMARK   85  A    between atoms: _199  and  _200
REMARK   86  A    between atoms: _199  and  _202
REMARK   87  A    between atoms: _202  and  _203
REMARK   88  A    between atoms: _209  and  _211
REMARK   89  A    between atoms: _211  and  _212
REMARK   90  A    between atoms: _211  and  _214
REMARK   91  A    between atoms: _214  and  _215
REMARK   92  A    between atoms: _218  and  _220
REMARK   93  A    between atoms: _220  and  _221
REMARK   94  A    between atoms: _220  and  _223
REMARK   95  A    between atoms: _223  and  _224
REMARK   96  A    between atoms: _230  and  _232
REMARK   97  A    between atoms: _232  and  _233
REMARK   98  A    between atoms: _232  and  _235
REMARK   99  A    between atoms: _235  and  _236
REMARK  100  A    between atoms: _242  and  _244
REMARK  101  A    between atoms: _244  and  _245
REMARK  102  A    between atoms: _244  and  _247
REMARK  103  A    between atoms: _247  and  _248
REMARK  104  A    between atoms: _251  and  _253
REMARK  105  A    between atoms: _253  and  _254
REMARK  106  A    between atoms: _253  and  _256
REMARK  107  A    between atoms: _256  and  _257
REMARK  108  A    between atoms: _260  and  _262
REMARK  109  A    between atoms: _262  and  _263
REMARK  110  A    between atoms: _262  and  _265
REMARK  111  A    between atoms: _265  and  _266
REMARK  112  A    between atoms: _266  and  _267
REMARK  113  A    between atoms: _267  and  _268
REMARK  114  A    between atoms: _277  and  _279
REMARK  115  A    between atoms: _279  and  _280
REMARK  116  A    between atoms: _279  and  _282
REMARK  117  A    between atoms: _282  and  _283
REMARK  118  A    between atoms: _286  and  _288
REMARK  119  A    between atoms: _288  and  _289
REMARK  120  A    between atoms: _288  and  _291
REMARK  121  A    between atoms: _291  and  _292
REMARK  122  A    between atoms: _292  and  _293
REMARK  123  A    between atoms: _298  and  _300
REMARK  124  A    between atoms: _300  and  _301
REMARK  125  A    between atoms: _300  and  _303
REMARK  126  A    between atoms: _303  and  _304
REMARK  127  A    between atoms: _306  and  _308
REMARK  128  A    between atoms: _308  and  _309
REMARK  129  A    between atoms: _311  and  _313
REMARK  130  A    between atoms: _313  and  _314
REMARK  131  A    between atoms: _313  and  _316
REMARK  132  A    between atoms: _316  and  _317
REMARK  133  A    between atoms: _322  and  _324
REMARK  134  A    between atoms: _324  and  _325
REMARK  135  A    between atoms: _327  and  _329
REMARK  136  A    between atoms: _329  and  _330
REMARK  137  A    between atoms: _329  and  _332
REMARK  138  A    between atoms: _332  and  _333
REMARK  139  A    between atoms: _339  and  _341
REMARK  140  A    between atoms: _341  and  _342
REMARK  141  A    between atoms: _341  and  _344
REMARK  142  A    between atoms: _344  and  _345
REMARK  143  A    between atoms: _348  and  _350
REMARK  144  A    between atoms: _350  and  _351
REMARK  145  A    between atoms: _350  and  _353
REMARK  146  A    between atoms: _353  and  _354
REMARK  147  A    between atoms: _354  and  _355
REMARK  148  A    between atoms: _358  and  _360
REMARK  149  A    between atoms: _360  and  _361
REMARK  150  A    between atoms: _360  and  _363
REMARK  151  A    between atoms: _363  and  _364
REMARK  152  A    between atoms: _367  and  _369
REMARK  153  A    between atoms: _369  and  _370
REMARK  154  A    between atoms: _369  and  _372
REMARK  155  A    between atoms: _375  and  _377
REMARK  156  A    between atoms: _377  and  _378
REMARK  157  A    between atoms: _377  and  _380
REMARK  158  A    between atoms: _380  and  _381
REMARK  159  A    between atoms: _384  and  _386
REMARK  160  A    between atoms: _386  and  _387
REMARK  161  A    between atoms: _386  and  _389
REMARK  162  A    between atoms: _389  and  _390
REMARK  163  A    between atoms: _395  and  _397
REMARK  164  A    between atoms: _397  and  _398
REMARK  165  A    between atoms: _400  and  _402
REMARK  166  A    between atoms: _402  and  _403
REMARK  167  A    between atoms: _402  and  _405
REMARK  168  A    between atoms: _405  and  _406
REMARK  169  A    between atoms: _406  and  _407
REMARK  170  A    between atoms: _409  and  _411
REMARK  171  A    between atoms: _411  and  _412
REMARK  172  A    between atoms: _411  and  _414
REMARK  173  A    between atoms: _417  and  _419
REMARK  174  A    between atoms: _419  and  _420
REMARK  175  A    between atoms: _419  and  _422
REMARK  176  A    between atoms: _422  and  _423
REMARK  177  A    between atoms: _425  and  _427
REMARK  178  A    between atoms: _427  and  _428
REMARK  179  A    between atoms: _427  and  _430
REMARK  180  A    between atoms: _430  and  _431
REMARK  181  A    between atoms: _433  and  _435
REMARK  182  A    between atoms: _435  and  _436
REMARK  183  A    between atoms: _435  and  _438
REMARK  184  A    between atoms: _438  and  _439
REMARK  185  A    between atoms: _439  and  _440
REMARK  186  A    between atoms: _445  and  _447
REMARK  187  A    between atoms: _447  and  _448
REMARK  188  A    between atoms: _451  and  _453
REMARK  189  A    between atoms: _453  and  _454
REMARK  190  A    between atoms: _453  and  _456
REMARK  191  A    between atoms: _456  and  _457
REMARK  192  A    between atoms: _457  and  _458
REMARK  193  A    between atoms: _460  and  _462
REMARK  194  A    between atoms: _462  and  _463
REMARK  195  A    between atoms: _462  and  _465
REMARK  196  A    between atoms: _465  and  _466
REMARK  197  A    between atoms: _471  and  _472
REMARK  198  A    between atoms: _474  and  _476
REMARK  199  A    between atoms: _476  and  _477
REMARK  200  A    between atoms: _476  and  _479
REMARK  201  A    between atoms: _479  and  _480
REMARK  202  A    between atoms: _483  and  _485
REMARK  203  A    between atoms: _485  and  _486
REMARK  204  A    between atoms: _485  and  _488
REMARK  205  A    between atoms: _488  and  _489
REMARK  206  A    between atoms: _491  and  _493
REMARK  207  A    between atoms: _493  and  _494
REMARK  208  A    between atoms: _493  and  _496
REMARK  209  A    between atoms: _496  and  _497
REMARK  210  A    between atoms: _500  and  _502
REMARK  211  A    between atoms: _502  and  _503
REMARK  212  A    between atoms: _502  and  _505
REMARK  213  A    between atoms: _505  and  _506
REMARK  214  A    between atoms: _506  and  _507
REMARK  215  A    between atoms: _509  and  _511
REMARK  216  A    between atoms: _511  and  _512
REMARK  217  A    between atoms: _511  and  _514
REMARK  218  A    between atoms: _514  and  _515
REMARK  219  A    between atoms: _520  and  _521
REMARK  220  A    between atoms: _523  and  _525
REMARK  221  A    between atoms: _525  and  _526
REMARK  222  A    between atoms: _525  and  _528
REMARK  223  A    between atoms: _528  and  _529
REMARK  224  A    between atoms: _529  and  _530
REMARK  225  A    between atoms: _530  and  _531
REMARK  226  A    between atoms: _540  and  _542
REMARK  227  A    between atoms: _542  and  _543
REMARK  228  A    between atoms: _542  and  _545
REMARK  229  A    between atoms: _545  and  _546
REMARK  230  A    between atoms: _548  and  _550
REMARK  231  A    between atoms: _550  and  _551
REMARK  232  A    between atoms: _550  and  _553
REMARK  233  A    between atoms: _553  and  _554
REMARK  234  A    between atoms: _559  and  _560
REMARK  235  A    between atoms: _562  and  _564
REMARK  236  A    between atoms: _564  and  _565
REMARK  237  A    between atoms: _568  and  _570
REMARK  238  A    between atoms: _570  and  _571
REMARK  239  A    between atoms: _574  and  _576
REMARK  240  A    between atoms: _576  and  _577
REMARK  241  A    between atoms: _576  and  _579
REMARK  242  A    between atoms: _579  and  _580
REMARK  243  A    between atoms: _580  and  _581
REMARK  244  A    between atoms: _581  and  _582
REMARK  245  A    between atoms: _591  and  _593
REMARK  246  A    between atoms: _593  and  _594
REMARK  247  A    between atoms: _593  and  _596
REMARK  248  A    between atoms: _599  and  _601
REMARK  249  A    between atoms: _601  and  _602
REMARK  250  A    between atoms: _604  and  _606
REMARK  251  A    between atoms: _606  and  _607
REMARK  252  A    between atoms: _606  and  _609
REMARK  253  A    between atoms: _609  and  _610
REMARK  254  A    between atoms: _613  and  _615
REMARK  255  A    between atoms: _615  and  _616
REMARK  256  A    between atoms: _619  and  _621
REMARK  257  A    between atoms: _621  and  _622
REMARK  258  A    between atoms: _621  and  _624
REMARK  259  A    between atoms: _624  and  _625
REMARK  260  A    between atoms: _628  and  _630
REMARK  261  A    between atoms: _630  and  _631
REMARK  262  A    between atoms: _630  and  _633
REMARK  263  A    between atoms: _633  and  _634
REMARK  264  A    between atoms: _639  and  _640
REMARK  265  A    between atoms: _642  and  _644
REMARK  266  A    between atoms: _644  and  _645
REMARK  267  A    between atoms: _644  and  _647
REMARK  268  A    between atoms: _647  and  _648
REMARK  269  A    between atoms: _648  and  _649
REMARK  270  A    between atoms: _651  and  _653
REMARK  271  A    between atoms: _653  and  _654
REMARK  272  A    between atoms: _653  and  _656
REMARK  273  A    between atoms: _656  and  _657
REMARK  274  A    between atoms: _657  and  _658
REMARK  275  A    between atoms: _661  and  _663
REMARK  276  A    between atoms: _663  and  _664
REMARK  277  A    between atoms: _663  and  _666
REMARK  278  A    between atoms: _666  and  _667
REMARK  279  A    between atoms: _673  and  _675
REMARK  280  A    between atoms: _675  and  _676
REMARK  281  A    between atoms: _675  and  _678
REMARK  282  A    between atoms: _678  and  _679
REMARK  283  A    between atoms: _684  and  _686
REMARK  284  A    between atoms: _686  and  _687
REMARK  285  A    between atoms: _686  and  _689
REMARK  286  A    between atoms: _689  and  _690
REMARK  287  A    between atoms: _700  and  _702
REMARK  288  A    between atoms: _702  and  _703
REMARK  289  A    between atoms: _702  and  _705
REMARK  290  A    between atoms: _708  and  _710
REMARK  291  A    between atoms: _710  and  _711
REMARK  292  A    between atoms: _710  and  _713
REMARK  293  A    between atoms: _713  and  _714
REMARK  294  A    between atoms: _717  and  _719
REMARK  295  A    between atoms: _719  and  _720
REMARK  296  A    between atoms: _719  and  _722
REMARK  297  A    between atoms: _722  and  _723
REMARK  298  A    between atoms: _723  and  _724
REMARK  299  A    between atoms: _726  and  _728
REMARK  300  A    between atoms: _728  and  _729
REMARK  301  A    between atoms: _728  and  _731
REMARK  302  A    between atoms: _731  and  _732
REMARK  303  A    between atoms: _735  and  _737
REMARK  304  A    between atoms: _737  and  _738
REMARK  305  A    between atoms: _737  and  _740
REMARK  306  A    between atoms: _740  and  _741
REMARK  307  A    between atoms: _744  and  _746
REMARK  308  A    between atoms: _746  and  _747
REMARK  309  A    between atoms: _746  and  _749
REMARK  310  A    between atoms: _749  and  _750
REMARK  311  A    between atoms: _753  and  _755
REMARK  312  A    between atoms: _755  and  _756
REMARK  313  A    between atoms: _755  and  _758
REMARK  314  A    between atoms: _758  and  _759
REMARK  315  A    between atoms: _762  and  _764
REMARK  316  A    between atoms: _764  and  _765
REMARK  317  A    between atoms: _767  and  _769
REMARK  318  A    between atoms: _769  and  _770
REMARK  319  A    between atoms: _769  and  _772
REMARK  320  A    between atoms: _772  and  _773
REMARK  321  A    between atoms: _775  and  _777
REMARK  322  A    between atoms: _777  and  _778
REMARK  323  A    between atoms: _777  and  _780
REMARK  324  A    between atoms: _780  and  _781
REMARK  325  A    between atoms: _791  and  _793
REMARK  326  A    between atoms: _793  and  _794
REMARK  327  A    between atoms: _793  and  _796
REMARK  328  A    between atoms: _796  and  _797
REMARK  329  A    between atoms: _799  and  _801
REMARK  330  A    between atoms: _801  and  _802
REMARK  331  A    between atoms: _801  and  _804
REMARK  332  A    between atoms: _804  and  _805
REMARK  333  A    between atoms: _808  and  _810
REMARK  334  A    between atoms: _810  and  _811
REMARK  335  A    between atoms: _814  and  _816
REMARK  336  A    between atoms: _816  and  _817
REMARK  337  A    between atoms: _816  and  _819
REMARK  338  A    between atoms: _819  and  _820
REMARK  339  A    between atoms: _822  and  _824
REMARK  340  A    between atoms: _824  and  _825
REMARK  341  A    between atoms: _824  and  _827
REMARK  342  A    between atoms: _827  and  _828
REMARK  343  A    between atoms: _828  and  _829
REMARK  344  A    between atoms: _832  and  _834
REMARK  345  A    between atoms: _834  and  _835
REMARK  346  A    between atoms: _834  and  _837
REMARK  347  A    between atoms: _837  and  _838
REMARK  348  A    between atoms: _840  and  _842
REMARK  349  A    between atoms: _842  and  _843
REMARK  350  A    between atoms: _842  and  _845
REMARK  351  A    between atoms: _845  and  _846
REMARK  352  A    between atoms: _846  and  _847
REMARK  353  A    between atoms: _852  and  _854
REMARK  354  A    between atoms: _854  and  _855
REMARK  355  A    between atoms: _854  and  _857
REMARK  356  A    between atoms: _857  and  _858
REMARK  357  A    between atoms: _858  and  _859
REMARK  358  A    between atoms: _864  and  _866
REMARK  359  A    between atoms: _866  and  _867
REMARK  360  A    between atoms: _866  and  _869
REMARK  361  A    between atoms: _869  and  _870
REMARK  362  A    between atoms: _873  and  _875
REMARK  363  A    between atoms: _875  and  _876
REMARK  364  A    between atoms: _875  and  _878
REMARK  365  A    between atoms: _878  and  _879
REMARK  366  A    between atoms: _882  and  _884
REMARK  367  A    between atoms: _884  and  _885
REMARK  368  A    between atoms: _884  and  _887
REMARK  369  A    between atoms: _887  and  _888
REMARK  370  A    between atoms: _895  and  _896
REMARK  371  A    between atoms: _901  and  _903
REMARK  372  A    between atoms: _903  and  _904
REMARK  373  A    between atoms: _903  and  _906
REMARK  374  A    between atoms: _906  and  _907
REMARK  375  A    between atoms: _912  and  _913
REMARK  376  A    between atoms: _915  and  _917
REMARK  377  A    between atoms: _917  and  _918
REMARK  378  A    between atoms: _917  and  _920
REMARK  379  A    between atoms: _920  and  _921
REMARK  380  A    between atoms: _926  and  _928
REMARK  381  A    between atoms: _928  and  _929
REMARK  382  A    between atoms: _928  and  _931
REMARK  383  A    between atoms: _931  and  _932
REMARK  384  A    between atoms: _938  and  _940
REMARK  385  A    between atoms: _940  and  _941
REMARK  386  A    between atoms: _940  and  _943
REMARK  387  A    between atoms: _943  and  _944
REMARK  388  A    between atoms: _947  and  _949
REMARK  389  A    between atoms: _949  and  _950
REMARK  390  A    between atoms: _949  and  _952
REMARK  391  A    between atoms: _952  and  _953
REMARK  392  A    between atoms: _958  and  _960
REMARK  393  A    between atoms: _960  and  _961
REMARK  394  A    between atoms: _960  and  _963
REMARK  395  A    between atoms: _963  and  _964
REMARK  396  A    between atoms: _970  and  _972
REMARK  397  A    between atoms: _972  and  _973
REMARK  398  A    between atoms: _972  and  _975
REMARK  399  A    between atoms: _975  and  _976
REMARK  400  A    between atoms: _976  and  _977
REMARK  401  A    between atoms: _979  and  _981
REMARK  402  A    between atoms: _981  and  _982
REMARK  403  A    between atoms: _981  and  _984
REMARK  404  A    between atoms: _984  and  _985
REMARK  405  A    between atoms: _988  and  _990
REMARK  406  A    between atoms: _990  and  _991
REMARK  407  A    between atoms: _990  and  _993
REMARK  408  A    between atoms: _993  and  _994
REMARK  409  A    between atoms: _999  and  _1001
REMARK  410  A    between atoms: _1001  and  _1002
REMARK  411  A    between atoms: _1001  and  _1004
REMARK  412  A    between atoms: _1004  and  _1005
REMARK  413  A    between atoms: _1010  and  _1011
REMARK                            x       y       z     vdW  Elec       q    Type
REMARK                         _______ _______ _______ _____ _____    ______ ____
ROOT
ATOM      1  C   GLN A   2      -6.491 -19.718  29.504  0.00  0.00    +0.241 C 
ATOM      2  N   SER A   3      -5.164 -19.764  29.574  0.00  0.00    -0.295 N 
ATOM      3  H   SER A   3      -4.720 -20.007  30.483  0.00  0.00    +0.150 HD
ATOM      4  O   GLN A   2      -7.111 -19.433  28.474  0.00  0.00    -0.273 OA
ENDROOT
BRANCH   2   5
ATOM      5  CA  SER A   3      -4.308 -19.488  28.431  0.00  0.00    +0.178 C 
BRANCH   5   6
ATOM      6  C   SER A   3      -3.112 -20.430  28.434  0.00  0.00    +0.243 C 
ATOM      7  O   SER A   3      -2.338 -20.464  29.393  0.00  0.00    -0.273 OA
ATOM      8  N   ASP A   4      -2.975 -21.199  27.357  0.00  0.00    -0.296 N 
ATOM      9  H   ASP A   4      -3.703 -21.160  26.616  0.00  0.00    +0.150 HD
BRANCH   8  10
ATOM     10  CA  ASP A   4      -1.836 -22.097  27.180  0.00  0.00    +0.160 C 
BRANCH  10  11
ATOM     11  C   ASP A   4      -0.596 -21.339  26.711  0.00  0.00    +0.241 C 
ATOM     12  O   ASP A   4       0.500 -21.899  26.646  0.00  0.00    -0.273 OA
ATOM     13  N   SER A   5      -0.788 -20.064  26.388  0.00  0.00    -0.296 N 
ATOM     14  H   SER A   5      -1.755 -19.683  26.424  0.00  0.00    +0.150 HD
BRANCH  13  15
ATOM     15  CA  SER A   5       0.293 -19.176  25.986  0.00  0.00    +0.166 C 
BRANCH  15  16
ATOM     16  CB  SER A   5       0.610 -18.193  27.111  0.00  0.00    +0.229 C 
ATOM     17  OG  SER A   5      -0.280 -17.841  27.890  0.00  0.00    -0.286 OA
ENDBRANCH  15  16
BRANCH  15  18
ATOM     18  C   SER A   5      -0.103 -18.413  24.722  0.00  0.00    +0.165 C 
BRANCH  18  19
ATOM     19  O   SER A   5      -0.259 -19.304  23.631  0.00  0.00    -0.380 OA
ATOM     20  H   SER A   5       0.596 -19.776  23.467  0.00  0.00    +0.211 HD
ENDBRANCH  18  19
ENDBRANCH  15  18
ENDBRANCH  13  15
ENDBRANCH  10  11
BRANCH  10  21
ATOM     21  CB  ASP A   4      -2.185 -23.223  26.202  0.00  0.00    +0.143 C 
BRANCH  21  22
ATOM     22  CG  ASP A   4      -3.014 -24.320  26.847  0.00  0.00    +0.367 C 
ATOM     23  OD2 ASP A   4      -2.653 -24.774  27.956  0.00  0.00    -0.246 OA
ATOM     24  OD1 ASP A   4      -4.023 -24.736  26.240  0.00  0.00    -0.246 OA
ENDBRANCH  21  22
ENDBRANCH  10  21
ENDBRANCH   8  10
ENDBRANCH   5   6
BRANCH   5  25
ATOM     25  CB  SER A   3      -3.839 -18.032  28.456  0.00  0.00    +0.166 C 
BRANCH  25  26
ATOM     26  OG  SER A   3      -3.018 -17.739  27.343  0.00  0.00    -0.380 OA
ATOM     27  H   SER A   3      -2.222 -18.328  27.357  0.00  0.00    +0.211 HD
ENDBRANCH  25  26
ENDBRANCH   5  25
ENDBRANCH   2   5
BRANCH   1  28
ATOM     28  CA  GLN A   2      -7.222 -20.037  30.806  0.00  0.00    +0.149 C 
BRANCH  28  31
ATOM     29  C   TYR A   1      -6.875 -17.979  32.067  0.00  0.00    +0.239 C 
ATOM     30  O   TYR A   1      -5.653 -18.142  32.095  0.00  0.00    -0.274 OA
ATOM     31  N   GLN A   2      -7.707 -18.824  31.463  0.00  0.00    -0.297 N 
ATOM     32  H   GLN A   2      -8.726 -18.617  31.458  0.00  0.00    +0.150 HD
BRANCH  29  33
ATOM     33  CA  TYR A   1      -7.511 -16.768  32.746  0.00  0.00    +0.149 C 
BRANCH  33  34
ATOM     34  N   TYR A   1      -6.988 -16.635  34.102  0.00  0.00    -0.238 NA
ATOM     35  H   TYR A   1      -5.968 -16.480  34.235  0.00  0.00    +0.142 HD
ENDBRANCH  33  34
BRANCH  33  36
ATOM     36  CB  TYR A   1      -7.250 -15.498  31.931  0.00  0.00    +0.053 C 
BRANCH  36  37
ATOM     37  CG  TYR A   1      -8.071 -15.406  30.663  0.00  0.00    -0.020 A 
ATOM     38  CD2 TYR A   1      -9.273 -14.704  30.641  0.00  0.00    -0.001 A 
ATOM     39  CE2 TYR A   1     -10.035 -14.619  29.479  0.00  0.00    +0.036 A 
ATOM     40  CZ  TYR A   1      -9.591 -15.243  28.322  0.00  0.00    +0.134 A 
ATOM     41  CE1 TYR A   1      -8.399 -15.947  28.320  0.00  0.00    +0.036 A 
ATOM     42  CD1 TYR A   1      -7.647 -16.025  29.487  0.00  0.00    -0.001 A 
BRANCH  40  43
ATOM     43  OH  TYR A   1     -10.339 -15.162  27.169  0.00  0.00    -0.506 OA
ATOM     44  HH  TYR A   1     -11.154 -14.627  27.342  0.00  0.00    +0.292 HD
ENDBRANCH  40  43
ENDBRANCH  36  37
ENDBRANCH  33  36
ENDBRANCH  29  33
ENDBRANCH  28  31
BRANCH  28  45
ATOM     45  CB  GLN A   2      -8.356 -21.041  30.571  0.00  0.00    +0.039 C 
BRANCH  45  46
ATOM     46  CG  GLN A   2      -7.877 -22.385  30.026  0.00  0.00    +0.087 C 
BRANCH  46  47
ATOM     47  CD  GLN A   2      -8.945 -23.460  30.068  0.00  0.00    +0.219 C 
ATOM     48  NE2 GLN A   2      -9.313 -23.889  31.271  0.00  0.00    -0.329 N 
ATOM     49 HE21 GLN A   2      -8.872 -23.488  32.123  0.00  0.00    +0.145 HD
ATOM     50 HE22 GLN A   2     -10.042 -24.626  31.360  0.00  0.00    +0.145 HD
ATOM     51  OE1 GLN A   2      -9.434 -23.900  29.029  0.00  0.00    -0.275 OA
ENDBRANCH  46  47
ENDBRANCH  45  46
ENDBRANCH  28  45
ENDBRANCH   1  28
TORSDOF 22
REMARK  Name = ../refined-set-2016/3drg/3drg_pocket.pdb
REMARK  413 active torsions:
REMARK  status: ('A' for Active; 'I' for Inactive)
REMARK    1  A    between atoms: _1  and  _3
REMARK    2  A    between atoms: _3  and  _4
REMARK    3  A    between atoms: _3  and  _6
REMARK    4  A    between atoms: _6  and  _7
REMARK    5  A    between atoms: _12  and  _13
REMARK    6  A    between atoms: _15  and  _17
REMARK    7  A    between atoms: _17  and  _18
REMARK    8  A    between atoms: _17  and  _20
REMARK    9  A    between atoms: _20  and  _21
REMARK   10  A    between atoms: _21  and  _22
REMARK   11  A    between atoms: _27  and  _29
REMARK   12  A    between atoms: _29  and  _30
REMARK   13  A    between atoms: _29  and  _32
REMARK   14  A    between atoms: _32  and  _33
REMARK   15  A    between atoms: _35  and  _37
REMARK   16  A    between atoms: _37  and  _38
REMARK   17  A    between atoms: _37  and  _40
REMARK   18  A    between atoms: _40  and  _41
REMARK   19  A    between atoms: _44  and  _46
REMARK   20  A    between atoms: _46  and  _47
REMARK   21  A    between atoms: _46  and  _49
REMARK   22  A    between atoms: _49  and  _50
REMARK   23  A    between atoms: _52  and  _54
REMARK   24  A    between atoms: _54  and  _55
REMARK   25  A    between atoms: _54  and  _57
REMARK   26  A    between atoms: _57  and  _58
REMARK   27  A    between atoms: _61  and  _63
REMARK   28  A    between atoms: _63  and  _64
REMARK   29  A    between atoms: _63  and  _66
REMARK   30  A    between atoms: _66  and  _67
REMARK   31  A    between atoms: _69  and  _71
REMARK   32  A    between atoms: _71  and  _72
REMARK   33  A    between atoms: _74  and  _76
REMARK   34  A    between atoms: _76  and  _77
REMARK   35  A    between atoms: _76  and  _79
REMARK   36  A    between atoms: _79  and  _80
REMARK   37  A    between atoms: _82  and  _84
REMARK   38  A    between atoms: _84  and  _85
REMARK   39  A    between atoms: _84  and  _87
REMARK   40  A    between atoms: _87  and  _88
REMARK   41  A    between atoms: _93  and  _95
REMARK   42  A    between atoms: _95  and  _96
REMARK   43  A    between atoms: _95  and  _98
REMARK   44  A    between atoms: _98  and  _99
REMARK   45  A    between atoms: _102  and  _104
REMARK   46  A    between atoms: _104  and  _105
REMARK   47  A    between atoms: _108  and  _110
REMARK   48  A    between atoms: _110  and  _111
REMARK   49  A    between atoms: _110  and  _113
REMARK   50  A    between atoms: _113  and  _114
REMARK   51  A    between atoms: _117  and  _119
REMARK   52  A    between atoms: _119  and  _120
REMARK   53  A    between atoms: _119  and  _122
REMARK   54  A    between atoms: _122  and  _123
REMARK   55  A    between atoms: _129  and  _131
REMARK   56  A    between atoms: _131  and  _132
REMARK   57  A    between atoms: _135  and  _137
REMARK   58  A    between atoms: _137  and  _138
REMARK   59  A    between atoms: _137  and  _140
REMARK   60  A    between atoms: _140  and  _141
REMARK   61  A    between atoms: _144  and  _146
REMARK   62  A    between atoms: _146  and  _147
REMARK   63  A    between atoms: _146  and  _149
REMARK   64  A    between atoms: _149  and  _150
REMARK   65  A    between atoms: _152  and  _154
REMARK   66  A    between atoms: _154  and  _155
REMARK   67  A    between atoms: _157  and  _159
REMARK   68  A    between atoms: _159  and  _160
REMARK   69  A    between atoms: _162  and  _164
REMARK   70  A    between atoms: _164  and  _165
REMARK   71  A    between atoms: _164  and  _167
REMARK   72  A    between atoms: _167  and  _168
REMARK   73  A    between atoms: _168  and  _169
REMARK   74  A    between atoms: _174  and  _176
REMARK   75  A    between atoms: _176  and  _177
REMARK   76  A    between atoms: _176  and  _179
REMARK   77  A    between atoms: _179  and  _180
REMARK   78  A    between atoms: _183  and  _185
REMARK   79  A    between atoms: _185  and  _186
REMARK   80  A    between atoms: _188  and  _190
REMARK   81  A    between atoms: _190  and  _191
REMARK   82  A    between atoms: _190  and  _193
REMARK   83  A    between atoms: _193  and  _194
REMARK   84  A    between atoms: _197  and  _199
REMARK   85  A    between atoms: _199  and  _200
REMARK   86  A    between atoms: _199  and  _202
REMARK   87  A    between atoms: _202  and  _203
REMARK   88  A    between atoms: _209  and  _211
REMARK   89  A    between atoms: _211  and  _212
REMARK   90  A    between atoms: _211  and  _214
REMARK   91  A    between atoms: _214  and  _215
REMARK   92  A    between atoms: _218  and  _220
REMARK   93  A    between atoms: _220  and  _221
REMARK   94  A    between atoms: _220  and  _223
REMARK   95  A    between atoms: _223  and  _224
REMARK   96  A    between atoms: _230  and  _232
REMARK   97  A    between atoms: _232  and  _233
REMARK   98  A    between atoms: _232  and  _235
REMARK   99  A    between atoms: _235  and  _236
REMARK  100  A    between atoms: _242  and  _244
REMARK  101  A    between atoms: _244  and  _245
REMARK  102  A    between atoms: _244  and  _247
REMARK  103  A    between atoms: _247  and  _248
REMARK  104  A    between atoms: _251  and  _253
REMARK  105  A    between atoms: _253  and  _254
REMARK  106  A    between atoms: _253  and  _256
REMARK  107  A    between atoms: _256  and  _257
REMARK  108  A    between atoms: _260  and  _262
REMARK  109  A    between atoms: _262  and  _263
REMARK  110  A    between atoms: _262  and  _265
REMARK  111  A    between atoms: _265  and  _266
REMARK  112  A    between atoms: _266  and  _267
REMARK  113  A    between atoms: _267  and  _268
REMARK  114  A    between atoms: _277  and  _279
REMARK  115  A    between atoms: _279  and  _280
REMARK  116  A    between atoms: _279  and  _282
REMARK  117  A    between atoms: _282  and  _283
REMARK  118  A    between atoms: _286  and  _288
REMARK  119  A    between atoms: _288  and  _289
REMARK  120  A    between atoms: _288  and  _291
REMARK  121  A    between atoms: _291  and  _292
REMARK  122  A    between atoms: _292  and  _293
REMARK  123  A    between atoms: _298  and  _300
REMARK  124  A    between atoms: _300  and  _301
REMARK  125  A    between atoms: _300  and  _303
REMARK  126  A    between atoms: _303  and  _304
REMARK  127  A    between atoms: _306  and  _308
REMARK  128  A    between atoms: _308  and  _309
REMARK  129  A    between atoms: _311  and  _313
REMARK  130  A    between atoms: _313  and  _314
REMARK  131  A    between atoms: _313  and  _316
REMARK  132  A    between atoms: _316  and  _317
REMARK  133  A    between atoms: _322  and  _324
REMARK  134  A    between atoms: _324  and  _325
REMARK  135  A    between atoms: _327  and  _329
REMARK  136  A    between atoms: _329  and  _330
REMARK  137  A    between atoms: _329  and  _332
REMARK  138  A    between atoms: _332  and  _333
REMARK  139  A    between atoms: _339  and  _341
REMARK  140  A    between atoms: _341  and  _342
REMARK  141  A    between atoms: _341  and  _344
REMARK  142  A    between atoms: _344  and  _345
REMARK  143  A    between atoms: _348  and  _350
REMARK  144  A    between atoms: _350  and  _351
REMARK  145  A    between atoms: _350  and  _353
REMARK  146  A    between atoms: _353  and  _354
REMARK  147  A    between atoms: _354  and  _355
REMARK  148  A    between atoms: _358  and  _360
REMARK  149  A    between atoms: _360  and  _361
REMARK  150  A    between atoms: _360  and  _363
REMARK  151  A    between atoms: _363  and  _364
REMARK  152  A    between atoms: _367  and  _369
REMARK  153  A    between atoms: _369  and  _370
REMARK  154  A    between atoms: _369  and  _372
REMARK  155  A    between atoms: _375  and  _377
REMARK  156  A    between atoms: _377  and  _378
REMARK  157  A    between atoms: _377  and  _380
REMARK  158  A    between atoms: _380  and  _381
REMARK  159  A    between atoms: _384  and  _386
REMARK  160  A    between atoms: _386  and  _387
REMARK  161  A    between atoms: _386  and  _389
REMARK  162  A    between atoms: _389  and  _390
REMARK  163  A    between atoms: _395  and  _397
REMARK  164  A    between atoms: _397  and  _398
REMARK  165  A    between atoms: _400  and  _402
REMARK  166  A    between atoms: _402  and  _403
REMARK  167  A    between atoms: _402  and  _405
REMARK  168  A    between atoms: _405  and  _406
REMARK  169  A    between atoms: _406  and  _407
REMARK  170  A    between atoms: _409  and  _411
REMARK  171  A    between atoms: _411  and  _412
REMARK  172  A    between atoms: _411  and  _414
REMARK  173  A    between atoms: _417  and  _419
REMARK  174  A    between atoms: _419  and  _420
REMARK  175  A    between atoms: _419  and  _422
REMARK  176  A    between atoms: _422  and  _423
REMARK  177  A    between atoms: _425  and  _427
REMARK  178  A    between atoms: _427  and  _428
REMARK  179  A    between atoms: _427  and  _430
REMARK  180  A    between atoms: _430  and  _431
REMARK  181  A    between atoms: _433  and  _435
REMARK  182  A    between atoms: _435  and  _436
REMARK  183  A    between atoms: _435  and  _438
REMARK  184  A    between atoms: _438  and  _439
REMARK  185  A    between atoms: _439  and  _440
REMARK  186  A    between atoms: _445  and  _447
REMARK  187  A    between atoms: _447  and  _448
REMARK  188  A    between atoms: _451  and  _453
REMARK  189  A    between atoms: _453  and  _454
REMARK  190  A    between atoms: _453  and  _456
REMARK  191  A    between atoms: _456  and  _457
REMARK  192  A    between atoms: _457  and  _458
REMARK  193  A    between atoms: _460  and  _462
REMARK  194  A    between atoms: _462  and  _463
REMARK  195  A    between atoms: _462  and  _465
REMARK  196  A    between atoms: _465  and  _466
REMARK  197  A    between atoms: _471  and  _472
REMARK  198  A    between atoms: _474  and  _476
REMARK  199  A    between atoms: _476  and  _477
REMARK  200  A    between atoms: _476  and  _479
REMARK  201  A    between atoms: _479  and  _480
REMARK  202  A    between atoms: _483  and  _485
REMARK  203  A    between atoms: _485  and  _486
REMARK  204  A    between atoms: _485  and  _488
REMARK  205  A    between atoms: _488  and  _489
REMARK  206  A    between atoms: _491  and  _493
REMARK  207  A    between atoms: _493  and  _494
REMARK  208  A    between atoms: _493  and  _496
REMARK  209  A    between atoms: _496  and  _497
REMARK  210  A    between atoms: _500  and  _502
REMARK  211  A    between atoms: _502  and  _503
REMARK  212  A    between atoms: _502  and  _505
REMARK  213  A    between atoms: _505  and  _506
REMARK  214  A    between atoms: _506  and  _507
REMARK  215  A    between atoms: _509  and  _511
REMARK  216  A    between atoms: _511  and  _512
REMARK  217  A    between atoms: _511  and  _514
REMARK  218  A    between atoms: _514  and  _515
REMARK  219  A    between atoms: _520  and  _521
REMARK  220  A    between atoms: _523  and  _525
REMARK  221  A    between atoms: _525  and  _526
REMARK  222  A    between atoms: _525  and  _528
REMARK  223  A    between atoms: _528  and  _529
REMARK  224  A    between atoms: _529  and  _530
REMARK  225  A    between atoms: _530  and  _531
REMARK  226  A    between atoms: _540  and  _542
REMARK  227  A    between atoms: _542  and  _543
REMARK  228  A    between atoms: _542  and  _545
REMARK  229  A    between atoms: _545  and  _546
REMARK  230  A    between atoms: _548  and  _550
REMARK  231  A    between atoms: _550  and  _551
REMARK  232  A    between atoms: _550  and  _553
REMARK  233  A    between atoms: _553  and  _554
REMARK  234  A    between atoms: _559  and  _560
REMARK  235  A    between atoms: _562  and  _564
REMARK  236  A    between atoms: _564  and  _565
REMARK  237  A    between atoms: _568  and  _570
REMARK  238  A    between atoms: _570  and  _571
REMARK  239  A    between atoms: _574  and  _576
REMARK  240  A    between atoms: _576  and  _577
REMARK  241  A    between atoms: _576  and  _579
REMARK  242  A    between atoms: _579  and  _580
REMARK  243  A    between atoms: _580  and  _581
REMARK  244  A    between atoms: _581  and  _582
REMARK  245  A    between atoms: _591  and  _593
REMARK  246  A    between atoms: _593  and  _594
REMARK  247  A    between atoms: _593  and  _596
REMARK  248  A    between atoms: _599  and  _601
REMARK  249  A    between atoms: _601  and  _602
REMARK  250  A    between atoms: _604  and  _606
REMARK  251  A    between atoms: _606  and  _607
REMARK  252  A    between atoms: _606  and  _609
REMARK  253  A    between atoms: _609  and  _610
REMARK  254  A    between atoms: _613  and  _615
REMARK  255  A    between atoms: _615  and  _616
REMARK  256  A    between atoms: _619  and  _621
REMARK  257  A    between atoms: _621  and  _622
REMARK  258  A    between atoms: _621  and  _624
REMARK  259  A    between atoms: _624  and  _625
REMARK  260  A    between atoms: _628  and  _630
REMARK  261  A    between atoms: _630  and  _631
REMARK  262  A    between atoms: _630  and  _633
REMARK  263  A    between atoms: _633  and  _634
REMARK  264  A    between atoms: _639  and  _640
REMARK  265  A    between atoms: _642  and  _644
REMARK  266  A    between atoms: _644  and  _645
REMARK  267  A    between atoms: _644  and  _647
REMARK  268  A    between atoms: _647  and  _648
REMARK  269  A    between atoms: _648  and  _649
REMARK  270  A    between atoms: _651  and  _653
REMARK  271  A    between atoms: _653  and  _654
REMARK  272  A    between atoms: _653  and  _656
REMARK  273  A    between atoms: _656  and  _657
REMARK  274  A    between atoms: _657  and  _658
REMARK  275  A    between atoms: _661  and  _663
REMARK  276  A    between atoms: _663  and  _664
REMARK  277  A    between atoms: _663  and  _666
REMARK  278  A    between atoms: _666  and  _667
REMARK  279  A    between atoms: _673  and  _675
REMARK  280  A    between atoms: _675  and  _676
REMARK  281  A    between atoms: _675  and  _678
REMARK  282  A    between atoms: _678  and  _679
REMARK  283  A    between atoms: _684  and  _686
REMARK  284  A    between atoms: _686  and  _687
REMARK  285  A    between atoms: _686  and  _689
REMARK  286  A    between atoms: _689  and  _690
REMARK  287  A    between atoms: _700  and  _702
REMARK  288  A    between atoms: _702  and  _703
REMARK  289  A    between atoms: _702  and  _705
REMARK  290  A    between atoms: _708  and  _710
REMARK  291  A    between atoms: _710  and  _711
REMARK  292  A    between atoms: _710  and  _713
REMARK  293  A    between atoms: _713  and  _714
REMARK  294  A    between atoms: _717  and  _719
REMARK  295  A    between atoms: _719  and  _720
REMARK  296  A    between atoms: _719  and  _722
REMARK  297  A    between atoms: _722  and  _723
REMARK  298  A    between atoms: _723  and  _724
REMARK  299  A    between atoms: _726  and  _728
REMARK  300  A    between atoms: _728  and  _729
REMARK  301  A    between atoms: _728  and  _731
REMARK  302  A    between atoms: _731  and  _732
REMARK  303  A    between atoms: _735  and  _737
REMARK  304  A    between atoms: _737  and  _738
REMARK  305  A    between atoms: _737  and  _740
REMARK  306  A    between atoms: _740  and  _741
REMARK  307  A    between atoms: _744  and  _746
REMARK  308  A    between atoms: _746  and  _747
REMARK  309  A    between atoms: _746  and  _749
REMARK  310  A    between atoms: _749  and  _750
REMARK  311  A    between atoms: _753  and  _755
REMARK  312  A    between atoms: _755  and  _756
REMARK  313  A    between atoms: _755  and  _758
REMARK  314  A    between atoms: _758  and  _759
REMARK  315  A    between atoms: _762  and  _764
REMARK  316  A    between atoms: _764  and  _765
REMARK  317  A    between atoms: _767  and  _769
REMARK  318  A    between atoms: _769  and  _770
REMARK  319  A    between atoms: _769  and  _772
REMARK  320  A    between atoms: _772  and  _773
REMARK  321  A    between atoms: _775  and  _777
REMARK  322  A    between atoms: _777  and  _778
REMARK  323  A    between atoms: _777  and  _780
REMARK  324  A    between atoms: _780  and  _781
REMARK  325  A    between atoms: _791  and  _793
REMARK  326  A    between atoms: _793  and  _794
REMARK  327  A    between atoms: _793  and  _796
REMARK  328  A    between atoms: _796  and  _797
REMARK  329  A    between atoms: _799  and  _801
REMARK  330  A    between atoms: _801  and  _802
REMARK  331  A    between atoms: _801  and  _804
REMARK  332  A    between atoms: _804  and  _805
REMARK  333  A    between atoms: _808  and  _810
REMARK  334  A    between atoms: _810  and  _811
REMARK  335  A    between atoms: _814  and  _816
REMARK  336  A    between atoms: _816  and  _817
REMARK  337  A    between atoms: _816  and  _819
REMARK  338  A    between atoms: _819  and  _820
REMARK  339  A    between atoms: _822  and  _824
REMARK  340  A    between atoms: _824  and  _825
REMARK  341  A    between atoms: _824  and  _827
REMARK  342  A    between atoms: _827  and  _828
REMARK  343  A    between atoms: _828  and  _829
REMARK  344  A    between atoms: _832  and  _834
REMARK  345  A    between atoms: _834  and  _835
REMARK  346  A    between atoms: _834  and  _837
REMARK  347  A    between atoms: _837  and  _838
REMARK  348  A    between atoms: _840  and  _842
REMARK  349  A    between atoms: _842  and  _843
REMARK  350  A    between atoms: _842  and  _845
REMARK  351  A    between atoms: _845  and  _846
REMARK  352  A    between atoms: _846  and  _847
REMARK  353  A    between atoms: _852  and  _854
REMARK  354  A    between atoms: _854  and  _855
REMARK  355  A    between atoms: _854  and  _857
REMARK  356  A    between atoms: _857  and  _858
REMARK  357  A    between atoms: _858  and  _859
REMARK  358  A    between atoms: _864  and  _866
REMARK  359  A    between atoms: _866  and  _867
REMARK  360  A    between atoms: _866  and  _869
REMARK  361  A    between atoms: _869  and  _870
REMARK  362  A    between atoms: _873  and  _875
REMARK  363  A    between atoms: _875  and  _876
REMARK  364  A    between atoms: _875  and  _878
REMARK  365  A    between atoms: _878  and  _879
REMARK  366  A    between atoms: _882  and  _884
REMARK  367  A    between atoms: _884  and  _885
REMARK  368  A    between atoms: _884  and  _887
REMARK  369  A    between atoms: _887  and  _888
REMARK  370  A    between atoms: _895  and  _896
REMARK  371  A    between atoms: _901  and  _903
REMARK  372  A    between atoms: _903  and  _904
REMARK  373  A    between atoms: _903  and  _906
REMARK  374  A    between atoms: _906  and  _907
REMARK  375  A    between atoms: _912  and  _913
REMARK  376  A    between atoms: _915  and  _917
REMARK  377  A    between atoms: _917  and  _918
REMARK  378  A    between atoms: _917  and  _920
REMARK  379  A    between atoms: _920  and  _921
REMARK  380  A    between atoms: _926  and  _928
REMARK  381  A    between atoms: _928  and  _929
REMARK  382  A    between atoms: _928  and  _931
REMARK  383  A    between atoms: _931  and  _932
REMARK  384  A    between atoms: _938  and  _940
REMARK  385  A    between atoms: _940  and  _941
REMARK  386  A    between atoms: _940  and  _943
REMARK  387  A    between atoms: _943  and  _944
REMARK  388  A    between atoms: _947  and  _949
REMARK  389  A    between atoms: _949  and  _950
REMARK  390  A    between atoms: _949  and  _952
REMARK  391  A    between atoms: _952  and  _953
REMARK  392  A    between atoms: _958  and  _960
REMARK  393  A    between atoms: _960  and  _961
REMARK  394  A    between atoms: _960  and  _963
REMARK  395  A    between atoms: _963  and  _964
REMARK  396  A    between atoms: _970  and  _972
REMARK  397  A    between atoms: _972  and  _973
REMARK  398  A    between atoms: _972  and  _975
REMARK  399  A    between atoms: _975  and  _976
REMARK  400  A    between atoms: _976  and  _977
REMARK  401  A    between atoms: _979  and  _981
REMARK  402  A    between atoms: _981  and  _982
REMARK  403  A    between atoms: _981  and  _984
REMARK  404  A    between atoms: _984  and  _985
REMARK  405  A    between atoms: _988  and  _990
REMARK  406  A    between atoms: _990  and  _991
REMARK  407  A    between atoms: _990  and  _993
REMARK  408  A    between atoms: _993  and  _994
REMARK  409  A    between atoms: _999  and  _1001
REMARK  410  A    between atoms: _1001  and  _1002
REMARK  411  A    between atoms: _1001  and  _1004
REMARK  412  A    between atoms: _1004  and  _1005
REMARK  413  A    between atoms: _1010  and  _1011
REMARK                            x       y       z     vdW  Elec       q    Type
REMARK                         _______ _______ _______ _____ _____    ______ ____
ROOT
ATOM      1  C   LEU A   1      -3.454  -0.327  24.776  0.00  0.00    +0.238 C 
ATOM      2  N   SER A   2      -4.728   0.054  24.724  0.00  0.00    -0.295 N 
ATOM      3  H   SER A   2      -5.014   0.899  25.258  0.00  0.00    +0.150 HD
ATOM      4  O   LEU A   1      -2.996  -1.273  24.127  0.00  0.00    -0.274 OA
ENDROOT
BRANCH   1   5
ATOM      5  CA  LEU A   1      -2.564   0.484  25.708  0.00  0.00    +0.145 C 
BRANCH   5   6
ATOM      6  N   LEU A   1      -1.972  -0.404  26.701  0.00  0.00    -0.238 NA
ATOM      7  H   LEU A   1      -1.093  -0.909  26.469  0.00  0.00    +0.142 HD
ENDBRANCH   5   6
BRANCH   5   8
ATOM      8  CB  LEU A   1      -1.486   1.233  24.914  0.00  0.00    +0.026 C 
BRANCH   8   9
ATOM      9  CG  LEU A   1      -0.474   2.131  25.639  0.00  0.00    +0.002 C 
ATOM     10  CD2 LEU A   1      -1.146   3.177  26.525  0.00  0.00    +0.000 C 
ATOM     11  CD1 LEU A   1       0.425   2.807  24.621  0.00  0.00    +0.000 C 
ENDBRANCH   8   9
ENDBRANCH   5   8
ENDBRANCH   1   5
BRANCH   2  12
ATOM     12  CA  SER A   2      -5.747  -0.661  23.950  0.00  0.00    +0.178 C 
BRANCH  12  13
ATOM     13  C   SER A   2      -5.428  -0.764  22.456  0.00  0.00    +0.243 C 
ATOM     14  N   GLY A   3      -4.799   0.275  21.912  0.00  0.00    -0.296 N 
ATOM     15  H   GLY A   3      -4.519   1.069  22.523  0.00  0.00    +0.150 HD
ATOM     16  O   SER A   2      -5.745  -1.767  21.818  0.00  0.00    -0.273 OA
BRANCH  14  17
ATOM     17  CA  GLY A   3      -4.489   0.338  20.489  0.00  0.00    +0.163 C 
BRANCH  17  18
ATOM     18  C   GLY A   3      -3.421  -0.637  20.032  0.00  0.00    +0.229 C 
ATOM     19  O   GLY A   3      -3.412  -1.055  18.871  0.00  0.00    -0.286 OA
ENDBRANCH  17  18
ENDBRANCH  14  17
ENDBRANCH  12  13
BRANCH  12  20
ATOM     20  CB  SER A   2      -7.114   0.000  24.145  0.00  0.00    +0.166 C 
BRANCH  20  21
ATOM     21  OG  SER A   2      -8.139  -0.757  23.528  0.00  0.00    -0.380 OA
ATOM     22  H   SER A   2      -7.957  -0.828  22.558  0.00  0.00    +0.211 HD
ENDBRANCH  20  21
ENDBRANCH  12  20
ENDBRANCH   2  12
TORSDOF 10
REMARK  Name = ../refined-set-2016/3drg/3drg_pocket.pdb
REMARK  413 active torsions:
REMARK  status: ('A' for Active; 'I' for Inactive)
REMARK    1  A    between atoms: _1  and  _3
REMARK    2  A    between atoms: _3  and  _4
REMARK    3  A    between atoms: _3  and  _6
REMARK    4  A    between atoms: _6  and  _7
REMARK    5  A    between atoms: _12  and  _13
REMARK    6  A    between atoms: _15  and  _17
REMARK    7  A    between atoms: _17  and  _18
REMARK    8  A    between atoms: _17  and  _20
REMARK    9  A    between atoms: _20  and  _21
REMARK   10  A    between atoms: _21  and  _22
REMARK   11  A    between atoms: _27  and  _29
REMARK   12  A    between atoms: _29  and  _30
REMARK   13  A    between atoms: _29  and  _32
REMARK   14  A    between atoms: _32  and  _33
REMARK   15  A    between atoms: _35  and  _37
REMARK   16  A    between atoms: _37  and  _38
REMARK   17  A    between atoms: _37  and  _40
REMARK   18  A    between atoms: _40  and  _41
REMARK   19  A    between atoms: _44  and  _46
REMARK   20  A    between atoms: _46  and  _47
REMARK   21  A    between atoms: _46  and  _49
REMARK   22  A    between atoms: _49  and  _50
REMARK   23  A    between atoms: _52  and  _54
REMARK   24  A    between atoms: _54  and  _55
REMARK   25  A    between atoms: _54  and  _57
REMARK   26  A    between atoms: _57  and  _58
REMARK   27  A    between atoms: _61  and  _63
REMARK   28  A    between atoms: _63  and  _64
REMARK   29  A    between atoms: _63  and  _66
REMARK   30  A    between atoms: _66  and  _67
REMARK   31  A    between atoms: _69  and  _71
REMARK   32  A    between atoms: _71  and  _72
REMARK   33  A    between atoms: _74  and  _76
REMARK   34  A    between atoms: _76  and  _77
REMARK   35  A    between atoms: _76  and  _79
REMARK   36  A    between atoms: _79  and  _80
REMARK   37  A    between atoms: _82  and  _84
REMARK   38  A    between atoms: _84  and  _85
REMARK   39  A    between atoms: _84  and  _87
REMARK   40  A    between atoms: _87  and  _88
REMARK   41  A    between atoms: _93  and  _95
REMARK   42  A    between atoms: _95  and  _96
REMARK   43  A    between atoms: _95  and  _98
REMARK   44  A    between atoms: _98  and  _99
REMARK   45  A    between atoms: _102  and  _104
REMARK   46  A    between atoms: _104  and  _105
REMARK   47  A    between atoms: _108  and  _110
REMARK   48  A    between atoms: _110  and  _111
REMARK   49  A    between atoms: _110  and  _113
REMARK   50  A    between atoms: _113  and  _114
REMARK   51  A    between atoms: _117  and  _119
REMARK   52  A    between atoms: _119  and  _120
REMARK   53  A    between atoms: _119  and  _122
REMARK   54  A    between atoms: _122  and  _123
REMARK   55  A    between atoms: _129  and  _131
REMARK   56  A    between atoms: _131  and  _132
REMARK   57  A    between atoms: _135  and  _137
REMARK   58  A    between atoms: _137  and  _138
REMARK   59  A    between atoms: _137  and  _140
REMARK   60  A    between atoms: _140  and  _141
REMARK   61  A    between atoms: _144  and  _146
REMARK   62  A    between atoms: _146  and  _147
REMARK   63  A    between atoms: _146  and  _149
REMARK   64  A    between atoms: _149  and  _150
REMARK   65  A    between atoms: _152  and  _154
REMARK   66  A    between atoms: _154  and  _155
REMARK   67  A    between atoms: _157  and  _159
REMARK   68  A    between atoms: _159  and  _160
REMARK   69  A    between atoms: _162  and  _164
REMARK   70  A    between atoms: _164  and  _165
REMARK   71  A    between atoms: _164  and  _167
REMARK   72  A    between atoms: _167  and  _168
REMARK   73  A    between atoms: _168  and  _169
REMARK   74  A    between atoms: _174  and  _176
REMARK   75  A    between atoms: _176  and  _177
REMARK   76  A    between atoms: _176  and  _179
REMARK   77  A    between atoms: _179  and  _180
REMARK   78  A    between atoms: _183  and  _185
REMARK   79  A    between atoms: _185  and  _186
REMARK   80  A    between atoms: _188  and  _190
REMARK   81  A    between atoms: _190  and  _191
REMARK   82  A    between atoms: _190  and  _193
REMARK   83  A    between atoms: _193  and  _194
REMARK   84  A    between atoms: _197  and  _199
REMARK   85  A    between atoms: _199  and  _200
REMARK   86  A    between atoms: _199  and  _202
REMARK   87  A    between atoms: _202  and  _203
REMARK   88  A    between atoms: _209  and  _211
REMARK   89  A    between atoms: _211  and  _212
REMARK   90  A    between atoms: _211  and  _214
REMARK   91  A    between atoms: _214  and  _215
REMARK   92  A    between atoms: _218  and  _220
REMARK   93  A    between atoms: _220  and  _221
REMARK   94  A    between atoms: _220  and  _223
REMARK   95  A    between atoms: _223  and  _224
REMARK   96  A    between atoms: _230  and  _232
REMARK   97  A    between atoms: _232  and  _233
REMARK   98  A    between atoms: _232  and  _235
REMARK   99  A    between atoms: _235  and  _236
REMARK  100  A    between atoms: _242  and  _244
REMARK  101  A    between atoms: _244  and  _245
REMARK  102  A    between atoms: _244  and  _247
REMARK  103  A    between atoms: _247  and  _248
REMARK  104  A    between atoms: _251  and  _253
REMARK  105  A    between atoms: _253  and  _254
REMARK  106  A    between atoms: _253  and  _256
REMARK  107  A    between atoms: _256  and  _257
REMARK  108  A    between atoms: _260  and  _262
REMARK  109  A    between atoms: _262  and  _263
REMARK  110  A    between atoms: _262  and  _265
REMARK  111  A    between atoms: _265  and  _266
REMARK  112  A    between atoms: _266  and  _267
REMARK  113  A    between atoms: _267  and  _268
REMARK  114  A    between atoms: _277  and  _279
REMARK  115  A    between atoms: _279  and  _280
REMARK  116  A    between atoms: _279  and  _282
REMARK  117  A    between atoms: _282  and  _283
REMARK  118  A    between atoms: _286  and  _288
REMARK  119  A    between atoms: _288  and  _289
REMARK  120  A    between atoms: _288  and  _291
REMARK  121  A    between atoms: _291  and  _292
REMARK  122  A    between atoms: _292  and  _293
REMARK  123  A    between atoms: _298  and  _300
REMARK  124  A    between atoms: _300  and  _301
REMARK  125  A    between atoms: _300  and  _303
REMARK  126  A    between atoms: _303  and  _304
REMARK  127  A    between atoms: _306  and  _308
REMARK  128  A    between atoms: _308  and  _309
REMARK  129  A    between atoms: _311  and  _313
REMARK  130  A    between atoms: _313  and  _314
REMARK  131  A    between atoms: _313  and  _316
REMARK  132  A    between atoms: _316  and  _317
REMARK  133  A    between atoms: _322  and  _324
REMARK  134  A    between atoms: _324  and  _325
REMARK  135  A    between atoms: _327  and  _329
REMARK  136  A    between atoms: _329  and  _330
REMARK  137  A    between atoms: _329  and  _332
REMARK  138  A    between atoms: _332  and  _333
REMARK  139  A    between atoms: _339  and  _341
REMARK  140  A    between atoms: _341  and  _342
REMARK  141  A    between atoms: _341  and  _344
REMARK  142  A    between atoms: _344  and  _345
REMARK  143  A    between atoms: _348  and  _350
REMARK  144  A    between atoms: _350  and  _351
REMARK  145  A    between atoms: _350  and  _353
REMARK  146  A    between atoms: _353  and  _354
REMARK  147  A    between atoms: _354  and  _355
REMARK  148  A    between atoms: _358  and  _360
REMARK  149  A    between atoms: _360  and  _361
REMARK  150  A    between atoms: _360  and  _363
REMARK  151  A    between atoms: _363  and  _364
REMARK  152  A    between atoms: _367  and  _369
REMARK  153  A    between atoms: _369  and  _370
REMARK  154  A    between atoms: _369  and  _372
REMARK  155  A    between atoms: _375  and  _377
REMARK  156  A    between atoms: _377  and  _378
REMARK  157  A    between atoms: _377  and  _380
REMARK  158  A    between atoms: _380  and  _381
REMARK  159  A    between atoms: _384  and  _386
REMARK  160  A    between atoms: _386  and  _387
REMARK  161  A    between atoms: _386  and  _389
REMARK  162  A    between atoms: _389  and  _390
REMARK  163  A    between atoms: _395  and  _397
REMARK  164  A    between atoms: _397  and  _398
REMARK  165  A    between atoms: _400  and  _402
REMARK  166  A    between atoms: _402  and  _403
REMARK  167  A    between atoms: _402  and  _405
REMARK  168  A    between atoms: _405  and  _406
REMARK  169  A    between atoms: _406  and  _407
REMARK  170  A    between atoms: _409  and  _411
REMARK  171  A    between atoms: _411  and  _412
REMARK  172  A    between atoms: _411  and  _414
REMARK  173  A    between atoms: _417  and  _419
REMARK  174  A    between atoms: _419  and  _420
REMARK  175  A    between atoms: _419  and  _422
REMARK  176  A    between atoms: _422  and  _423
REMARK  177  A    between atoms: _425  and  _427
REMARK  178  A    between atoms: _427  and  _428
REMARK  179  A    between atoms: _427  and  _430
REMARK  180  A    between atoms: _430  and  _431
REMARK  181  A    between atoms: _433  and  _435
REMARK  182  A    between atoms: _435  and  _436
REMARK  183  A    between atoms: _435  and  _438
REMARK  184  A    between atoms: _438  and  _439
REMARK  185  A    between atoms: _439  and  _440
REMARK  186  A    between atoms: _445  and  _447
REMARK  187  A    between atoms: _447  and  _448
REMARK  188  A    between atoms: _451  and  _453
REMARK  189  A    between atoms: _453  and  _454
REMARK  190  A    between atoms: _453  and  _456
REMARK  191  A    between atoms: _456  and  _457
REMARK  192  A    between atoms: _457  and  _458
REMARK  193  A    between atoms: _460  and  _462
REMARK  194  A    between atoms: _462  and  _463
REMARK  195  A    between atoms: _462  and  _465
REMARK  196  A    between atoms: _465  and  _466
REMARK  197  A    between atoms: _471  and  _472
REMARK  198  A    between atoms: _474  and  _476
REMARK  199  A    between atoms: _476  and  _477
REMARK  200  A    between atoms: _476  and  _479
REMARK  201  A    between atoms: _479  and  _480
REMARK  202  A    between atoms: _483  and  _485
REMARK  203  A    between atoms: _485  and  _486
REMARK  204  A    between atoms: _485  and  _488
REMARK  205  A    between atoms: _488  and  _489
REMARK  206  A    between atoms: _491  and  _493
REMARK  207  A    between atoms: _493  and  _494
REMARK  208  A    between atoms: _493  and  _496
REMARK  209  A    between atoms: _496  and  _497
REMARK  210  A    between atoms: _500  and  _502
REMARK  211  A    between atoms: _502  and  _503
REMARK  212  A    between atoms: _502  and  _505
REMARK  213  A    between atoms: _505  and  _506
REMARK  214  A    between atoms: _506  and  _507
REMARK  215  A    between atoms: _509  and  _511
REMARK  216  A    between atoms: _511  and  _512
REMARK  217  A    between atoms: _511  and  _514
REMARK  218  A    between atoms: _514  and  _515
REMARK  219  A    between atoms: _520  and  _521
REMARK  220  A    between atoms: _523  and  _525
REMARK  221  A    between atoms: _525  and  _526
REMARK  222  A    between atoms: _525  and  _528
REMARK  223  A    between atoms: _528  and  _529
REMARK  224  A    between atoms: _529  and  _530
REMARK  225  A    between atoms: _530  and  _531
REMARK  226  A    between atoms: _540  and  _542
REMARK  227  A    between atoms: _542  and  _543
REMARK  228  A    between atoms: _542  and  _545
REMARK  229  A    between atoms: _545  and  _546
REMARK  230  A    between atoms: _548  and  _550
REMARK  231  A    between atoms: _550  and  _551
REMARK  232  A    between atoms: _550  and  _553
REMARK  233  A    between atoms: _553  and  _554
REMARK  234  A    between atoms: _559  and  _560
REMARK  235  A    between atoms: _562  and  _564
REMARK  236  A    between atoms: _564  and  _565
REMARK  237  A    between atoms: _568  and  _570
REMARK  238  A    between atoms: _570  and  _571
REMARK  239  A    between atoms: _574  and  _576
REMARK  240  A    between atoms: _576  and  _577
REMARK  241  A    between atoms: _576  and  _579
REMARK  242  A    between atoms: _579  and  _580
REMARK  243  A    between atoms: _580  and  _581
REMARK  244  A    between atoms: _581  and  _582
REMARK  245  A    between atoms: _591  and  _593
REMARK  246  A    between atoms: _593  and  _594
REMARK  247  A    between atoms: _593  and  _596
REMARK  248  A    between atoms: _599  and  _601
REMARK  249  A    between atoms: _601  and  _602
REMARK  250  A    between atoms: _604  and  _606
REMARK  251  A    between atoms: _606  and  _607
REMARK  252  A    between atoms: _606  and  _609
REMARK  253  A    between atoms: _609  and  _610
REMARK  254  A    between atoms: _613  and  _615
REMARK  255  A    between atoms: _615  and  _616
REMARK  256  A    between atoms: _619  and  _621
REMARK  257  A    between atoms: _621  and  _622
REMARK  258  A    between atoms: _621  and  _624
REMARK  259  A    between atoms: _624  and  _625
REMARK  260  A    between atoms: _628  and  _630
REMARK  261  A    between atoms: _630  and  _631
REMARK  262  A    between atoms: _630  and  _633
REMARK  263  A    between atoms: _633  and  _634
REMARK  264  A    between atoms: _639  and  _640
REMARK  265  A    between atoms: _642  and  _644
REMARK  266  A    between atoms: _644  and  _645
REMARK  267  A    between atoms: _644  and  _647
REMARK  268  A    between atoms: _647  and  _648
REMARK  269  A    between atoms: _648  and  _649
REMARK  270  A    between atoms: _651  and  _653
REMARK  271  A    between atoms: _653  and  _654
REMARK  272  A    between atoms: _653  and  _656
REMARK  273  A    between atoms: _656  and  _657
REMARK  274  A    between atoms: _657  and  _658
REMARK  275  A    between atoms: _661  and  _663
REMARK  276  A    between atoms: _663  and  _664
REMARK  277  A    between atoms: _663  and  _666
REMARK  278  A    between atoms: _666  and  _667
REMARK  279  A    between atoms: _673  and  _675
REMARK  280  A    between atoms: _675  and  _676
REMARK  281  A    between atoms: _675  and  _678
REMARK  282  A    between atoms: _678  and  _679
REMARK  283  A    between atoms: _684  and  _686
REMARK  284  A    between atoms: _686  and  _687
REMARK  285  A    between atoms: _686  and  _689
REMARK  286  A    between atoms: _689  and  _690
REMARK  287  A    between atoms: _700  and  _702
REMARK  288  A    between atoms: _702  and  _703
REMARK  289  A    between atoms: _702  and  _705
REMARK  290  A    between atoms: _708  and  _710
REMARK  291  A    between atoms: _710  and  _711
REMARK  292  A    between atoms: _710  and  _713
REMARK  293  A    between atoms: _713  and  _714
REMARK  294  A    between atoms: _717  and  _719
REMARK  295  A    between atoms: _719  and  _720
REMARK  296  A    between atoms: _719  and  _722
REMARK  297  A    between atoms: _722  and  _723
REMARK  298  A    between atoms: _723  and  _724
REMARK  299  A    between atoms: _726  and  _728
REMARK  300  A    between atoms: _728  and  _729
REMARK  301  A    between atoms: _728  and  _731
REMARK  302  A    between atoms: _731  and  _732
REMARK  303  A    between atoms: _735  and  _737
REMARK  304  A    between atoms: _737  and  _738
REMARK  305  A    between atoms: _737  and  _740
REMARK  306  A    between atoms: _740  and  _741
REMARK  307  A    between atoms: _744  and  _746
REMARK  308  A    between atoms: _746  and  _747
REMARK  309  A    between atoms: _746  and  _749
REMARK  310  A    between atoms: _749  and  _750
REMARK  311  A    between atoms: _753  and  _755
REMARK  312  A    between atoms: _755  and  _756
REMARK  313  A    between atoms: _755  and  _758
REMARK  314  A    between atoms: _758  and  _759
REMARK  315  A    between atoms: _762  and  _764
REMARK  316  A    between atoms: _764  and  _765
REMARK  317  A    between atoms: _767  and  _769
REMARK  318  A    between atoms: _769  and  _770
REMARK  319  A    between atoms: _769  and  _772
REMARK  320  A    between atoms: _772  and  _773
REMARK  321  A    between atoms: _775  and  _777
REMARK  322  A    between atoms: _777  and  _778
REMARK  323  A    between atoms: _777  and  _780
REMARK  324  A    between atoms: _780  and  _781
REMARK  325  A    between atoms: _791  and  _793
REMARK  326  A    between atoms: _793  and  _794
REMARK  327  A    between atoms: _793  and  _796
REMARK  328  A    between atoms: _796  and  _797
REMARK  329  A    between atoms: _799  and  _801
REMARK  330  A    between atoms: _801  and  _802
REMARK  331  A    between atoms: _801  and  _804
REMARK  332  A    between atoms: _804  and  _805
REMARK  333  A    between atoms: _808  and  _810
REMARK  334  A    between atoms: _810  and  _811
REMARK  335  A    between atoms: _814  and  _816
REMARK  336  A    between atoms: _816  and  _817
REMARK  337  A    between atoms: _816  and  _819
REMARK  338  A    between atoms: _819  and  _820
REMARK  339  A    between atoms: _822  and  _824
REMARK  340  A    between atoms: _824  and  _825
REMARK  341  A    between atoms: _824  and  _827
REMARK  342  A    between atoms: _827  and  _828
REMARK  343  A    between atoms: _828  and  _829
REMARK  344  A    between atoms: _832  and  _834
REMARK  345  A    between atoms: _834  and  _835
REMARK  346  A    between atoms: _834  and  _837
REMARK  347  A    between atoms: _837  and  _838
REMARK  348  A    between atoms: _840  and  _842
REMARK  349  A    between atoms: _842  and  _843
REMARK  350  A    between atoms: _842  and  _845
REMARK  351  A    between atoms: _845  and  _846
REMARK  352  A    between atoms: _846  and  _847
REMARK  353  A    between atoms: _852  and  _854
REMARK  354  A    between atoms: _854  and  _855
REMARK  355  A    between atoms: _854  and  _857
REMARK  356  A    between atoms: _857  and  _858
REMARK  357  A    between atoms: _858  and  _859
REMARK  358  A    between atoms: _864  and  _866
REMARK  359  A    between atoms: _866  and  _867
REMARK  360  A    between atoms: _866  and  _869
REMARK  361  A    between atoms: _869  and  _870
REMARK  362  A    between atoms: _873  and  _875
REMARK  363  A    between atoms: _875  and  _876
REMARK  364  A    between atoms: _875  and  _878
REMARK  365  A    between atoms: _878  and  _879
REMARK  366  A    between atoms: _882  and  _884
REMARK  367  A    between atoms: _884  and  _885
REMARK  368  A    between atoms: _884  and  _887
REMARK  369  A    between atoms: _887  and  _888
REMARK  370  A    between atoms: _895  and  _896
REMARK  371  A    between atoms: _901  and  _903
REMARK  372  A    between atoms: _903  and  _904
REMARK  373  A    between atoms: _903  and  _906
REMARK  374  A    between atoms: _906  and  _907
REMARK  375  A    between atoms: _912  and  _913
REMARK  376  A    between atoms: _915  and  _917
REMARK  377  A    between atoms: _917  and  _918
REMARK  378  A    between atoms: _917  and  _920
REMARK  379  A    between atoms: _920  and  _921
REMARK  380  A    between atoms: _926  and  _928
REMARK  381  A    between atoms: _928  and  _929
REMARK  382  A    between atoms: _928  and  _931
REMARK  383  A    between atoms: _931  and  _932
REMARK  384  A    between atoms: _938  and  _940
REMARK  385  A    between atoms: _940  and  _941
REMARK  386  A    between atoms: _940  and  _943
REMARK  387  A    between atoms: _943  and  _944
REMARK  388  A    between atoms: _947  and  _949
REMARK  389  A    between atoms: _949  and  _950
REMARK  390  A    between atoms: _949  and  _952
REMARK  391  A    between atoms: _952  and  _953
REMARK  392  A    between atoms: _958  and  _960
REMARK  393  A    between atoms: _960  and  _961
REMARK  394  A    between atoms: _960  and  _963
REMARK  395  A    between atoms: _963  and  _964
REMARK  396  A    between atoms: _970  and  _972
REMARK  397  A    between atoms: _972  and  _973
REMARK  398  A    between atoms: _972  and  _975
REMARK  399  A    between atoms: _975  and  _976
REMARK  400  A    between atoms: _976  and  _977
REMARK  401  A    between atoms: _979  and  _981
REMARK  402  A    between atoms: _981  and  _982
REMARK  403  A    between atoms: _981  and  _984
REMARK  404  A    between atoms: _984  and  _985
REMARK  405  A    between atoms: _988  and  _990
REMARK  406  A    between atoms: _990  and  _991
REMARK  407  A    between atoms: _990  and  _993
REMARK  408  A    between atoms: _993  and  _994
REMARK  409  A    between atoms: _999  and  _1001
REMARK  410  A    between atoms: _1001  and  _1002
REMARK  411  A    between atoms: _1001  and  _1004
REMARK  412  A    between atoms: _1004  and  _1005
REMARK  413  A    between atoms: _1010  and  _1011
REMARK                            x       y       z     vdW  Elec       q    Type
REMARK                         _______ _______ _______ _____ _____    ______ ____
ROOT
ATOM      1  C   ALA A   4      -8.198 -11.238  25.746  0.00  0.00    +0.241 C 
ATOM      2  O   ALA A   4      -8.749 -10.837  26.774  0.00  0.00    -0.273 OA
ATOM      3  N   THR A   5      -7.175 -12.090  25.747  0.00  0.00    -0.295 N 
ATOM      4  H   THR A   5      -6.761 -12.371  24.835  0.00  0.00    +0.150 HD
ENDROOT
BRANCH   1   5
ATOM      5  CA  ALA A   4      -8.677 -10.765  24.375  0.00  0.00    +0.149 C 
ATOM      6  CB  ALA A   4      -9.904 -11.541  23.954  0.00  0.00    +0.031 C 
BRANCH   5   9
ATOM      7  C   ASP A   3      -6.618 -10.038  23.260  0.00  0.00    +0.241 C 
ATOM      8  O   ASP A   3      -6.508  -9.026  23.956  0.00  0.00    -0.273 OA
ATOM      9  N   ALA A   4      -7.629 -10.897  23.367  0.00  0.00    -0.297 N 
ATOM     10  H   ALA A   4      -7.674 -11.697  22.704  0.00  0.00    +0.150 HD
BRANCH   7  11
ATOM     11  CA  ASP A   3      -5.574 -10.381  22.200  0.00  0.00    +0.160 C 
BRANCH  11  13
ATOM     12  C   ASN A   2      -5.428  -8.683  20.451  0.00  0.00    +0.241 C 
ATOM     13  N   ASP A   3      -4.961  -9.204  21.584  0.00  0.00    -0.297 N 
ATOM     14  H   ASP A   3      -4.139  -8.763  22.043  0.00  0.00    +0.150 HD
ATOM     15  O   ASN A   2      -6.441  -9.104  19.887  0.00  0.00    -0.273 OA
BRANCH  12  16
ATOM     16  CA  ASN A   2      -4.643  -7.511  19.856  0.00  0.00    +0.158 C 
BRANCH  16  19
ATOM     17  C   SER A   1      -4.067  -5.581  21.261  0.00  0.00    +0.241 C 
ATOM     18  O   SER A   1      -5.107  -4.978  20.977  0.00  0.00    -0.274 OA
ATOM     19  N   ASN A   2      -3.777  -6.799  20.802  0.00  0.00    -0.297 N 
ATOM     20  H   ASN A   2      -2.904  -7.262  21.127  0.00  0.00    +0.150 HD
BRANCH  17  21
ATOM     21  CA  SER A   1      -3.032  -4.949  22.193  0.00  0.00    +0.174 C 
BRANCH  21  22
ATOM     22  N   SER A   1      -2.683  -3.593  21.768  0.00  0.00    -0.236 NA
ATOM     23  H   SER A   1      -3.294  -2.804  22.062  0.00  0.00    +0.142 HD
ENDBRANCH  21  22
BRANCH  21  24
ATOM     24  CB  SER A   1      -3.557  -4.937  23.628  0.00  0.00    +0.163 C 
BRANCH  24  25
ATOM     25  OG  SER A   1      -3.809  -6.251  24.093  0.00  0.00    -0.380 OA
ATOM     26  H   SER A   1      -2.970  -6.775  24.068  0.00  0.00    +0.211 HD
ENDBRANCH  24  25
ENDBRANCH  21  24
ENDBRANCH  17  21
ENDBRANCH  16  19
BRANCH  16  27
ATOM     27  CB  ASN A   2      -3.833  -7.993  18.648  0.00  0.00    +0.114 C 
BRANCH  27  28
ATOM     28  CG  ASN A   2      -3.296  -6.849  17.806  0.00  0.00    +0.222 C 
ATOM     29  OD1 ASN A   2      -3.970  -5.838  17.602  0.00  0.00    -0.275 OA
ATOM     30  ND2 ASN A   2      -2.079  -7.009  17.307  0.00  0.00    -0.329 N 
ATOM     31 HD21 ASN A   2      -1.546  -7.880  17.505  0.00  0.00    +0.145 HD
ATOM     32 HD22 ASN A   2      -1.657  -6.264  16.717  0.00  0.00    +0.145 HD
ENDBRANCH  27  28
ENDBRANCH  16  27
ENDBRANCH  12  16
ENDBRANCH  11  13
BRANCH  11  33
ATOM     33  CB  ASP A   3      -4.505 -11.309  22.791  0.00  0.00    +0.143 C 
BRANCH  33  34
ATOM     34  CG  ASP A   3      -3.708 -10.654  23.904  0.00  0.00    +0.367 C 
ATOM     35  OD2 ASP A   3      -3.871 -11.065  25.070  0.00  0.00    -0.246 OA
ATOM     36  OD1 ASP A   3      -2.912  -9.737  23.613  0.00  0.00    -0.246 OA
ENDBRANCH  33  34
ENDBRANCH  11  33
ENDBRANCH   7  11
ENDBRANCH   5   9
ENDBRANCH   1   5
BRANCH   3  37
ATOM     37  CA  THR A   5      -6.608 -12.648  26.974  0.00  0.00    +0.176 C 
BRANCH  37  38
ATOM     38  C   THR A   5      -6.185 -11.561  27.957  0.00  0.00    +0.243 C 
ATOM     39  O   THR A   5      -6.620 -11.569  29.109  0.00  0.00    -0.273 OA
ATOM     40  N   PHE A   6      -5.358 -10.621  27.505  0.00  0.00    -0.297 N 
ATOM     41  H   PHE A   6      -5.043 -10.645  26.514  0.00  0.00    +0.150 HD
BRANCH  40  42
ATOM     42  CA  PHE A   6      -4.889  -9.555  28.390  0.00  0.00    +0.153 C 
BRANCH  42  43
ATOM     43  C   PHE A   6      -5.921  -8.450  28.611  0.00  0.00    +0.241 C 
ATOM     44  O   PHE A   6      -5.917  -7.800  29.658  0.00  0.00    -0.273 OA
ATOM     45  N   ALA A   7      -6.797  -8.244  27.628  0.00  0.00    -0.297 N 
ATOM     46  H   ALA A   7      -6.706  -8.794  26.750  0.00  0.00    +0.150 HD
BRANCH  45  47
ATOM     47  CA  ALA A   7      -7.884  -7.269  27.742  0.00  0.00    +0.149 C 
ATOM     48  CB  ALA A   7      -8.670  -7.193  26.438  0.00  0.00    +0.031 C 
BRANCH  47  49
ATOM     49  C   ALA A   7      -8.810  -7.611  28.911  0.00  0.00    +0.241 C 
ATOM     50  O   ALA A   7      -9.313  -6.718  29.598  0.00  0.00    -0.273 OA
ATOM     51  N   THR A   8      -9.022  -8.908  29.127  0.00  0.00    -0.296 N 
ATOM     52  H   THR A   8      -8.611  -9.596  28.464  0.00  0.00    +0.150 HD
BRANCH  51  53
ATOM     53  CA  THR A   8      -9.806  -9.406  30.254  0.00  0.00    +0.164 C 
BRANCH  53  54
ATOM     54  C   THR A   8      -9.013  -9.295  31.560  0.00  0.00    +0.229 C 
ATOM     55  O   THR A   8      -9.583  -9.009  32.615  0.00  0.00    -0.286 OA
ENDBRANCH  53  54
BRANCH  53  56
ATOM     56  CB  THR A   8     -10.237 -10.876  30.031  0.00  0.00    +0.136 C 
ATOM     57  CG2 THR A   8     -11.313 -11.289  31.030  0.00  0.00    +0.034 C 
BRANCH  56  58
ATOM     58  OG1 THR A   8     -10.743 -11.035  28.700  0.00  0.00    -0.382 OA
ATOM     59  HG1 THR A   8     -10.036 -10.798  28.049  0.00  0.00    +0.210 HD
ENDBRANCH  56  58
ENDBRANCH  53  56
ENDBRANCH  51  53
ENDBRANCH  47  49
ENDBRANCH  45  47
ENDBRANCH  42  43
BRANCH  42  60
ATOM     60  CB  PHE A   6      -3.547  -8.967  27.937  0.00  0.00    +0.055 C 
BRANCH  60  61
ATOM     61  CG  PHE A   6      -2.915  -8.073  28.968  0.00  0.00    -0.020 A 
ATOM     62  CD2 PHE A   6      -2.257  -8.617  30.067  0.00  0.00    -0.004 A 
ATOM     63  CE2 PHE A   6      -1.690  -7.799  31.037  0.00  0.00    -0.000 A 
ATOM     64  CZ  PHE A   6      -1.782  -6.418  30.914  0.00  0.00    -0.000 A 
ATOM     65  CE1 PHE A   6      -2.446  -5.862  29.825  0.00  0.00    -0.000 A 
ATOM     66  CD1 PHE A   6      -3.009  -6.690  28.862  0.00  0.00    -0.004 A 
ENDBRANCH  60  61
ENDBRANCH  42  60
ENDBRANCH  40  42
ENDBRANCH  37  38
BRANCH  37  67
ATOM     67  CB  THR A   5      -5.419 -13.596  26.673  0.00  0.00    +0.137 C 
ATOM     68  CG2 THR A   5      -4.848 -14.194  27.961  0.00  0.00    +0.034 C 
BRANCH  67  69
ATOM     69  OG1 THR A   5      -5.859 -14.657  25.818  0.00  0.00    -0.382 OA
ATOM     70  HG1 THR A   5      -5.099 -15.262  25.626  0.00  0.00    +0.210 HD
ENDBRANCH  67  69
ENDBRANCH  37  67
ENDBRANCH   3  37
TORSDOF 28
REMARK  Name = ../refined-set-2016/3drg/3drg_pocket.pdb
REMARK  413 active torsions:
REMARK  status: ('A' for Active; 'I' for Inactive)
REMARK    1  A    between atoms: _1  and  _3
REMARK    2  A    between atoms: _3  and  _4
REMARK    3  A    between atoms: _3  and  _6
REMARK    4  A    between atoms: _6  and  _7
REMARK    5  A    between atoms: _12  and  _13
REMARK    6  A    between atoms: _15  and  _17
REMARK    7  A    between atoms: _17  and  _18
REMARK    8  A    between atoms: _17  and  _20
REMARK    9  A    between atoms: _20  and  _21
REMARK   10  A    between atoms: _21  and  _22
REMARK   11  A    between atoms: _27  and  _29
REMARK   12  A    between atoms: _29  and  _30
REMARK   13  A    between atoms: _29  and  _32
REMARK   14  A    between atoms: _32  and  _33
REMARK   15  A    between atoms: _35  and  _37
REMARK   16  A    between atoms: _37  and  _38
REMARK   17  A    between atoms: _37  and  _40
REMARK   18  A    between atoms: _40  and  _41
REMARK   19  A    between atoms: _44  and  _46
REMARK   20  A    between atoms: _46  and  _47
REMARK   21  A    between atoms: _46  and  _49
REMARK   22  A    between atoms: _49  and  _50
REMARK   23  A    between atoms: _52  and  _54
REMARK   24  A    between atoms: _54  and  _55
REMARK   25  A    between atoms: _54  and  _57
REMARK   26  A    between atoms: _57  and  _58
REMARK   27  A    between atoms: _61  and  _63
REMARK   28  A    between atoms: _63  and  _64
REMARK   29  A    between atoms: _63  and  _66
REMARK   30  A    between atoms: _66  and  _67
REMARK   31  A    between atoms: _69  and  _71
REMARK   32  A    between atoms: _71  and  _72
REMARK   33  A    between atoms: _74  and  _76
REMARK   34  A    between atoms: _76  and  _77
REMARK   35  A    between atoms: _76  and  _79
REMARK   36  A    between atoms: _79  and  _80
REMARK   37  A    between atoms: _82  and  _84
REMARK   38  A    between atoms: _84  and  _85
REMARK   39  A    between atoms: _84  and  _87
REMARK   40  A    between atoms: _87  and  _88
REMARK   41  A    between atoms: _93  and  _95
REMARK   42  A    between atoms: _95  and  _96
REMARK   43  A    between atoms: _95  and  _98
REMARK   44  A    between atoms: _98  and  _99
REMARK   45  A    between atoms: _102  and  _104
REMARK   46  A    between atoms: _104  and  _105
REMARK   47  A    between atoms: _108  and  _110
REMARK   48  A    between atoms: _110  and  _111
REMARK   49  A    between atoms: _110  and  _113
REMARK   50  A    between atoms: _113  and  _114
REMARK   51  A    between atoms: _117  and  _119
REMARK   52  A    between atoms: _119  and  _120
REMARK   53  A    between atoms: _119  and  _122
REMARK   54  A    between atoms: _122  and  _123
REMARK   55  A    between atoms: _129  and  _131
REMARK   56  A    between atoms: _131  and  _132
REMARK   57  A    between atoms: _135  and  _137
REMARK   58  A    between atoms: _137  and  _138
REMARK   59  A    between atoms: _137  and  _140
REMARK   60  A    between atoms: _140  and  _141
REMARK   61  A    between atoms: _144  and  _146
REMARK   62  A    between atoms: _146  and  _147
REMARK   63  A    between atoms: _146  and  _149
REMARK   64  A    between atoms: _149  and  _150
REMARK   65  A    between atoms: _152  and  _154
REMARK   66  A    between atoms: _154  and  _155
REMARK   67  A    between atoms: _157  and  _159
REMARK   68  A    between atoms: _159  and  _160
REMARK   69  A    between atoms: _162  and  _164
REMARK   70  A    between atoms: _164  and  _165
REMARK   71  A    between atoms: _164  and  _167
REMARK   72  A    between atoms: _167  and  _168
REMARK   73  A    between atoms: _168  and  _169
REMARK   74  A    between atoms: _174  and  _176
REMARK   75  A    between atoms: _176  and  _177
REMARK   76  A    between atoms: _176  and  _179
REMARK   77  A    between atoms: _179  and  _180
REMARK   78  A    between atoms: _183  and  _185
REMARK   79  A    between atoms: _185  and  _186
REMARK   80  A    between atoms: _188  and  _190
REMARK   81  A    between atoms: _190  and  _191
REMARK   82  A    between atoms: _190  and  _193
REMARK   83  A    between atoms: _193  and  _194
REMARK   84  A    between atoms: _197  and  _199
REMARK   85  A    between atoms: _199  and  _200
REMARK   86  A    between atoms: _199  and  _202
REMARK   87  A    between atoms: _202  and  _203
REMARK   88  A    between atoms: _209  and  _211
REMARK   89  A    between atoms: _211  and  _212
REMARK   90  A    between atoms: _211  and  _214
REMARK   91  A    between atoms: _214  and  _215
REMARK   92  A    between atoms: _218  and  _220
REMARK   93  A    between atoms: _220  and  _221
REMARK   94  A    between atoms: _220  and  _223
REMARK   95  A    between atoms: _223  and  _224
REMARK   96  A    between atoms: _230  and  _232
REMARK   97  A    between atoms: _232  and  _233
REMARK   98  A    between atoms: _232  and  _235
REMARK   99  A    between atoms: _235  and  _236
REMARK  100  A    between atoms: _242  and  _244
REMARK  101  A    between atoms: _244  and  _245
REMARK  102  A    between atoms: _244  and  _247
REMARK  103  A    between atoms: _247  and  _248
REMARK  104  A    between atoms: _251  and  _253
REMARK  105  A    between atoms: _253  and  _254
REMARK  106  A    between atoms: _253  and  _256
REMARK  107  A    between atoms: _256  and  _257
REMARK  108  A    between atoms: _260  and  _262
REMARK  109  A    between atoms: _262  and  _263
REMARK  110  A    between atoms: _262  and  _265
REMARK  111  A    between atoms: _265  and  _266
REMARK  112  A    between atoms: _266  and  _267
REMARK  113  A    between atoms: _267  and  _268
REMARK  114  A    between atoms: _277  and  _279
REMARK  115  A    between atoms: _279  and  _280
REMARK  116  A    between atoms: _279  and  _282
REMARK  117  A    between atoms: _282  and  _283
REMARK  118  A    between atoms: _286  and  _288
REMARK  119  A    between atoms: _288  and  _289
REMARK  120  A    between atoms: _288  and  _291
REMARK  121  A    between atoms: _291  and  _292
REMARK  122  A    between atoms: _292  and  _293
REMARK  123  A    between atoms: _298  and  _300
REMARK  124  A    between atoms: _300  and  _301
REMARK  125  A    between atoms: _300  and  _303
REMARK  126  A    between atoms: _303  and  _304
REMARK  127  A    between atoms: _306  and  _308
REMARK  128  A    between atoms: _308  and  _309
REMARK  129  A    between atoms: _311  and  _313
REMARK  130  A    between atoms: _313  and  _314
REMARK  131  A    between atoms: _313  and  _316
REMARK  132  A    between atoms: _316  and  _317
REMARK  133  A    between atoms: _322  and  _324
REMARK  134  A    between atoms: _324  and  _325
REMARK  135  A    between atoms: _327  and  _329
REMARK  136  A    between atoms: _329  and  _330
REMARK  137  A    between atoms: _329  and  _332
REMARK  138  A    between atoms: _332  and  _333
REMARK  139  A    between atoms: _339  and  _341
REMARK  140  A    between atoms: _341  and  _342
REMARK  141  A    between atoms: _341  and  _344
REMARK  142  A    between atoms: _344  and  _345
REMARK  143  A    between atoms: _348  and  _350
REMARK  144  A    between atoms: _350  and  _351
REMARK  145  A    between atoms: _350  and  _353
REMARK  146  A    between atoms: _353  and  _354
REMARK  147  A    between atoms: _354  and  _355
REMARK  148  A    between atoms: _358  and  _360
REMARK  149  A    between atoms: _360  and  _361
REMARK  150  A    between atoms: _360  and  _363
REMARK  151  A    between atoms: _363  and  _364
REMARK  152  A    between atoms: _367  and  _369
REMARK  153  A    between atoms: _369  and  _370
REMARK  154  A    between atoms: _369  and  _372
REMARK  155  A    between atoms: _375  and  _377
REMARK  156  A    between atoms: _377  and  _378
REMARK  157  A    between atoms: _377  and  _380
REMARK  158  A    between atoms: _380  and  _381
REMARK  159  A    between atoms: _384  and  _386
REMARK  160  A    between atoms: _386  and  _387
REMARK  161  A    between atoms: _386  and  _389
REMARK  162  A    between atoms: _389  and  _390
REMARK  163  A    between atoms: _395  and  _397
REMARK  164  A    between atoms: _397  and  _398
REMARK  165  A    between atoms: _400  and  _402
REMARK  166  A    between atoms: _402  and  _403
REMARK  167  A    between atoms: _402  and  _405
REMARK  168  A    between atoms: _405  and  _406
REMARK  169  A    between atoms: _406  and  _407
REMARK  170  A    between atoms: _409  and  _411
REMARK  171  A    between atoms: _411  and  _412
REMARK  172  A    between atoms: _411  and  _414
REMARK  173  A    between atoms: _417  and  _419
REMARK  174  A    between atoms: _419  and  _420
REMARK  175  A    between atoms: _419  and  _422
REMARK  176  A    between atoms: _422  and  _423
REMARK  177  A    between atoms: _425  and  _427
REMARK  178  A    between atoms: _427  and  _428
REMARK  179  A    between atoms: _427  and  _430
REMARK  180  A    between atoms: _430  and  _431
REMARK  181  A    between atoms: _433  and  _435
REMARK  182  A    between atoms: _435  and  _436
REMARK  183  A    between atoms: _435  and  _438
REMARK  184  A    between atoms: _438  and  _439
REMARK  185  A    between atoms: _439  and  _440
REMARK  186  A    between atoms: _445  and  _447
REMARK  187  A    between atoms: _447  and  _448
REMARK  188  A    between atoms: _451  and  _453
REMARK  189  A    between atoms: _453  and  _454
REMARK  190  A    between atoms: _453  and  _456
REMARK  191  A    between atoms: _456  and  _457
REMARK  192  A    between atoms: _457  and  _458
REMARK  193  A    between atoms: _460  and  _462
REMARK  194  A    between atoms: _462  and  _463
REMARK  195  A    between atoms: _462  and  _465
REMARK  196  A    between atoms: _465  and  _466
REMARK  197  A    between atoms: _471  and  _472
REMARK  198  A    between atoms: _474  and  _476
REMARK  199  A    between atoms: _476  and  _477
REMARK  200  A    between atoms: _476  and  _479
REMARK  201  A    between atoms: _479  and  _480
REMARK  202  A    between atoms: _483  and  _485
REMARK  203  A    between atoms: _485  and  _486
REMARK  204  A    between atoms: _485  and  _488
REMARK  205  A    between atoms: _488  and  _489
REMARK  206  A    between atoms: _491  and  _493
REMARK  207  A    between atoms: _493  and  _494
REMARK  208  A    between atoms: _493  and  _496
REMARK  209  A    between atoms: _496  and  _497
REMARK  210  A    between atoms: _500  and  _502
REMARK  211  A    between atoms: _502  and  _503
REMARK  212  A    between atoms: _502  and  _505
REMARK  213  A    between atoms: _505  and  _506
REMARK  214  A    between atoms: _506  and  _507
REMARK  215  A    between atoms: _509  and  _511
REMARK  216  A    between atoms: _511  and  _512
REMARK  217  A    between atoms: _511  and  _514
REMARK  218  A    between atoms: _514  and  _515
REMARK  219  A    between atoms: _520  and  _521
REMARK  220  A    between atoms: _523  and  _525
REMARK  221  A    between atoms: _525  and  _526
REMARK  222  A    between atoms: _525  and  _528
REMARK  223  A    between atoms: _528  and  _529
REMARK  224  A    between atoms: _529  and  _530
REMARK  225  A    between atoms: _530  and  _531
REMARK  226  A    between atoms: _540  and  _542
REMARK  227  A    between atoms: _542  and  _543
REMARK  228  A    between atoms: _542  and  _545
REMARK  229  A    between atoms: _545  and  _546
REMARK  230  A    between atoms: _548  and  _550
REMARK  231  A    between atoms: _550  and  _551
REMARK  232  A    between atoms: _550  and  _553
REMARK  233  A    between atoms: _553  and  _554
REMARK  234  A    between atoms: _559  and  _560
REMARK  235  A    between atoms: _562  and  _564
REMARK  236  A    between atoms: _564  and  _565
REMARK  237  A    between atoms: _568  and  _570
REMARK  238  A    between atoms: _570  and  _571
REMARK  239  A    between atoms: _574  and  _576
REMARK  240  A    between atoms: _576  and  _577
REMARK  241  A    between atoms: _576  and  _579
REMARK  242  A    between atoms: _579  and  _580
REMARK  243  A    between atoms: _580  and  _581
REMARK  244  A    between atoms: _581  and  _582
REMARK  245  A    between atoms: _591  and  _593
REMARK  246  A    between atoms: _593  and  _594
REMARK  247  A    between atoms: _593  and  _596
REMARK  248  A    between atoms: _599  and  _601
REMARK  249  A    between atoms: _601  and  _602
REMARK  250  A    between atoms: _604  and  _606
REMARK  251  A    between atoms: _606  and  _607
REMARK  252  A    between atoms: _606  and  _609
REMARK  253  A    between atoms: _609  and  _610
REMARK  254  A    between atoms: _613  and  _615
REMARK  255  A    between atoms: _615  and  _616
REMARK  256  A    between atoms: _619  and  _621
REMARK  257  A    between atoms: _621  and  _622
REMARK  258  A    between atoms: _621  and  _624
REMARK  259  A    between atoms: _624  and  _625
REMARK  260  A    between atoms: _628  and  _630
REMARK  261  A    between atoms: _630  and  _631
REMARK  262  A    between atoms: _630  and  _633
REMARK  263  A    between atoms: _633  and  _634
REMARK  264  A    between atoms: _639  and  _640
REMARK  265  A    between atoms: _642  and  _644
REMARK  266  A    between atoms: _644  and  _645
REMARK  267  A    between atoms: _644  and  _647
REMARK  268  A    between atoms: _647  and  _648
REMARK  269  A    between atoms: _648  and  _649
REMARK  270  A    between atoms: _651  and  _653
REMARK  271  A    between atoms: _653  and  _654
REMARK  272  A    between atoms: _653  and  _656
REMARK  273  A    between atoms: _656  and  _657
REMARK  274  A    between atoms: _657  and  _658
REMARK  275  A    between atoms: _661  and  _663
REMARK  276  A    between atoms: _663  and  _664
REMARK  277  A    between atoms: _663  and  _666
REMARK  278  A    between atoms: _666  and  _667
REMARK  279  A    between atoms: _673  and  _675
REMARK  280  A    between atoms: _675  and  _676
REMARK  281  A    between atoms: _675  and  _678
REMARK  282  A    between atoms: _678  and  _679
REMARK  283  A    between atoms: _684  and  _686
REMARK  284  A    between atoms: _686  and  _687
REMARK  285  A    between atoms: _686  and  _689
REMARK  286  A    between atoms: _689  and  _690
REMARK  287  A    between atoms: _700  and  _702
REMARK  288  A    between atoms: _702  and  _703
REMARK  289  A    between atoms: _702  and  _705
REMARK  290  A    between atoms: _708  and  _710
REMARK  291  A    between atoms: _710  and  _711
REMARK  292  A    between atoms: _710  and  _713
REMARK  293  A    between atoms: _713  and  _714
REMARK  294  A    between atoms: _717  and  _719
REMARK  295  A    between atoms: _719  and  _720
REMARK  296  A    between atoms: _719  and  _722
REMARK  297  A    between atoms: _722  and  _723
REMARK  298  A    between atoms: _723  and  _724
REMARK  299  A    between atoms: _726  and  _728
REMARK  300  A    between atoms: _728  and  _729
REMARK  301  A    between atoms: _728  and  _731
REMARK  302  A    between atoms: _731  and  _732
REMARK  303  A    between atoms: _735  and  _737
REMARK  304  A    between atoms: _737  and  _738
REMARK  305  A    between atoms: _737  and  _740
REMARK  306  A    between atoms: _740  and  _741
REMARK  307  A    between atoms: _744  and  _746
REMARK  308  A    between atoms: _746  and  _747
REMARK  309  A    between atoms: _746  and  _749
REMARK  310  A    between atoms: _749  and  _750
REMARK  311  A    between atoms: _753  and  _755
REMARK  312  A    between atoms: _755  and  _756
REMARK  313  A    between atoms: _755  and  _758
REMARK  314  A    between atoms: _758  and  _759
REMARK  315  A    between atoms: _762  and  _764
REMARK  316  A    between atoms: _764  and  _765
REMARK  317  A    between atoms: _767  and  _769
REMARK  318  A    between atoms: _769  and  _770
REMARK  319  A    between atoms: _769  and  _772
REMARK  320  A    between atoms: _772  and  _773
REMARK  321  A    between atoms: _775  and  _777
REMARK  322  A    between atoms: _777  and  _778
REMARK  323  A    between atoms: _777  and  _780
REMARK  324  A    between atoms: _780  and  _781
REMARK  325  A    between atoms: _791  and  _793
REMARK  326  A    between atoms: _793  and  _794
REMARK  327  A    between atoms: _793  and  _796
REMARK  328  A    between atoms: _796  and  _797
REMARK  329  A    between atoms: _799  and  _801
REMARK  330  A    between atoms: _801  and  _802
REMARK  331  A    between atoms: _801  and  _804
REMARK  332  A    between atoms: _804  and  _805
REMARK  333  A    between atoms: _808  and  _810
REMARK  334  A    between atoms: _810  and  _811
REMARK  335  A    between atoms: _814  and  _816
REMARK  336  A    between atoms: _816  and  _817
REMARK  337  A    between atoms: _816  and  _819
REMARK  338  A    between atoms: _819  and  _820
REMARK  339  A    between atoms: _822  and  _824
REMARK  340  A    between atoms: _824  and  _825
REMARK  341  A    between atoms: _824  and  _827
REMARK  342  A    between atoms: _827  and  _828
REMARK  343  A    between atoms: _828  and  _829
REMARK  344  A    between atoms: _832  and  _834
REMARK  345  A    between atoms: _834  and  _835
REMARK  346  A    between atoms: _834  and  _837
REMARK  347  A    between atoms: _837  and  _838
REMARK  348  A    between atoms: _840  and  _842
REMARK  349  A    between atoms: _842  and  _843
REMARK  350  A    between atoms: _842  and  _845
REMARK  351  A    between atoms: _845  and  _846
REMARK  352  A    between atoms: _846  and  _847
REMARK  353  A    between atoms: _852  and  _854
REMARK  354  A    between atoms: _854  and  _855
REMARK  355  A    between atoms: _854  and  _857
REMARK  356  A    between atoms: _857  and  _858
REMARK  357  A    between atoms: _858  and  _859
REMARK  358  A    between atoms: _864  and  _866
REMARK  359  A    between atoms: _866  and  _867
REMARK  360  A    between atoms: _866  and  _869
REMARK  361  A    between atoms: _869  and  _870
REMARK  362  A    between atoms: _873  and  _875
REMARK  363  A    between atoms: _875  and  _876
REMARK  364  A    between atoms: _875  and  _878
REMARK  365  A    between atoms: _878  and  _879
REMARK  366  A    between atoms: _882  and  _884
REMARK  367  A    between atoms: _884  and  _885
REMARK  368  A    between atoms: _884  and  _887
REMARK  369  A    between atoms: _887  and  _888
REMARK  370  A    between atoms: _895  and  _896
REMARK  371  A    between atoms: _901  and  _903
REMARK  372  A    between atoms: _903  and  _904
REMARK  373  A    between atoms: _903  and  _906
REMARK  374  A    between atoms: _906  and  _907
REMARK  375  A    between atoms: _912  and  _913
REMARK  376  A    between atoms: _915  and  _917
REMARK  377  A    between atoms: _917  and  _918
REMARK  378  A    between atoms: _917  and  _920
REMARK  379  A    between atoms: _920  and  _921
REMARK  380  A    between atoms: _926  and  _928
REMARK  381  A    between atoms: _928  and  _929
REMARK  382  A    between atoms: _928  and  _931
REMARK  383  A    between atoms: _931  and  _932
REMARK  384  A    between atoms: _938  and  _940
REMARK  385  A    between atoms: _940  and  _941
REMARK  386  A    between atoms: _940  and  _943
REMARK  387  A    between atoms: _943  and  _944
REMARK  388  A    between atoms: _947  and  _949
REMARK  389  A    between atoms: _949  and  _950
REMARK  390  A    between atoms: _949  and  _952
REMARK  391  A    between atoms: _952  and  _953
REMARK  392  A    between atoms: _958  and  _960
REMARK  393  A    between atoms: _960  and  _961
REMARK  394  A    between atoms: _960  and  _963
REMARK  395  A    between atoms: _963  and  _964
REMARK  396  A    between atoms: _970  and  _972
REMARK  397  A    between atoms: _972  and  _973
REMARK  398  A    between atoms: _972  and  _975
REMARK  399  A    between atoms: _975  and  _976
REMARK  400  A    between atoms: _976  and  _977
REMARK  401  A    between atoms: _979  and  _981
REMARK  402  A    between atoms: _981  and  _982
REMARK  403  A    between atoms: _981  and  _984
REMARK  404  A    between atoms: _984  and  _985
REMARK  405  A    between atoms: _988  and  _990
REMARK  406  A    between atoms: _990  and  _991
REMARK  407  A    between atoms: _990  and  _993
REMARK  408  A    between atoms: _993  and  _994
REMARK  409  A    between atoms: _999  and  _1001
REMARK  410  A    between atoms: _1001  and  _1002
REMARK  411  A    between atoms: _1001  and  _1004
REMARK  412  A    between atoms: _1004  and  _1005
REMARK  413  A    between atoms: _1010  and  _1011
REMARK                            x       y       z     vdW  Elec       q    Type
REMARK                         _______ _______ _______ _____ _____    ______ ____
ROOT
ATOM      1  CA  SER A   1      -6.593  -5.651  32.584  0.00  0.00    +0.163 C 
ENDROOT
BRANCH   1   2
ATOM      2  N   SER A   1      -6.787  -7.065  32.257  0.00  0.00    -0.237 NA
ATOM      3  H   SER A   1      -7.110  -7.317  31.301  0.00  0.00    +0.142 HD
ENDBRANCH   1   2
BRANCH   1   4
ATOM      4  CB  SER A   1      -7.839  -5.017  33.213  0.00  0.00    +0.227 C 
ATOM      5  OG  SER A   1      -7.852  -3.818  33.504  0.00  0.00    -0.287 OA
ENDBRANCH   1   4
BRANCH   1   6
ATOM      6  C   SER A   1      -6.162  -4.865  31.340  0.00  0.00    +0.162 C 
BRANCH   6   7
ATOM      7  O   SER A   1      -7.219  -4.769  30.400  0.00  0.00    -0.380 OA
ATOM      8  H   SER A   1      -7.493  -5.678  30.120  0.00  0.00    +0.211 HD
ENDBRANCH   6   7
ENDBRANCH   1   6
TORSDOF 4
REMARK  Name = ../refined-set-2016/3drg/3drg_pocket.pdb
REMARK  413 active torsions:
REMARK  status: ('A' for Active; 'I' for Inactive)
REMARK    1  A    between atoms: _1  and  _3
REMARK    2  A    between atoms: _3  and  _4
REMARK    3  A    between atoms: _3  and  _6
REMARK    4  A    between atoms: _6  and  _7
REMARK    5  A    between atoms: _12  and  _13
REMARK    6  A    between atoms: _15  and  _17
REMARK    7  A    between atoms: _17  and  _18
REMARK    8  A    between atoms: _17  and  _20
REMARK    9  A    between atoms: _20  and  _21
REMARK   10  A    between atoms: _21  and  _22
REMARK   11  A    between atoms: _27  and  _29
REMARK   12  A    between atoms: _29  and  _30
REMARK   13  A    between atoms: _29  and  _32
REMARK   14  A    between atoms: _32  and  _33
REMARK   15  A    between atoms: _35  and  _37
REMARK   16  A    between atoms: _37  and  _38
REMARK   17  A    between atoms: _37  and  _40
REMARK   18  A    between atoms: _40  and  _41
REMARK   19  A    between atoms: _44  and  _46
REMARK   20  A    between atoms: _46  and  _47
REMARK   21  A    between atoms: _46  and  _49
REMARK   22  A    between atoms: _49  and  _50
REMARK   23  A    between atoms: _52  and  _54
REMARK   24  A    between atoms: _54  and  _55
REMARK   25  A    between atoms: _54  and  _57
REMARK   26  A    between atoms: _57  and  _58
REMARK   27  A    between atoms: _61  and  _63
REMARK   28  A    between atoms: _63  and  _64
REMARK   29  A    between atoms: _63  and  _66
REMARK   30  A    between atoms: _66  and  _67
REMARK   31  A    between atoms: _69  and  _71
REMARK   32  A    between atoms: _71  and  _72
REMARK   33  A    between atoms: _74  and  _76
REMARK   34  A    between atoms: _76  and  _77
REMARK   35  A    between atoms: _76  and  _79
REMARK   36  A    between atoms: _79  and  _80
REMARK   37  A    between atoms: _82  and  _84
REMARK   38  A    between atoms: _84  and  _85
REMARK   39  A    between atoms: _84  and  _87
REMARK   40  A    between atoms: _87  and  _88
REMARK   41  A    between atoms: _93  and  _95
REMARK   42  A    between atoms: _95  and  _96
REMARK   43  A    between atoms: _95  and  _98
REMARK   44  A    between atoms: _98  and  _99
REMARK   45  A    between atoms: _102  and  _104
REMARK   46  A    between atoms: _104  and  _105
REMARK   47  A    between atoms: _108  and  _110
REMARK   48  A    between atoms: _110  and  _111
REMARK   49  A    between atoms: _110  and  _113
REMARK   50  A    between atoms: _113  and  _114
REMARK   51  A    between atoms: _117  and  _119
REMARK   52  A    between atoms: _119  and  _120
REMARK   53  A    between atoms: _119  and  _122
REMARK   54  A    between atoms: _122  and  _123
REMARK   55  A    between atoms: _129  and  _131
REMARK   56  A    between atoms: _131  and  _132
REMARK   57  A    between atoms: _135  and  _137
REMARK   58  A    between atoms: _137  and  _138
REMARK   59  A    between atoms: _137  and  _140
REMARK   60  A    between atoms: _140  and  _141
REMARK   61  A    between atoms: _144  and  _146
REMARK   62  A    between atoms: _146  and  _147
REMARK   63  A    between atoms: _146  and  _149
REMARK   64  A    between atoms: _149  and  _150
REMARK   65  A    between atoms: _152  and  _154
REMARK   66  A    between atoms: _154  and  _155
REMARK   67  A    between atoms: _157  and  _159
REMARK   68  A    between atoms: _159  and  _160
REMARK   69  A    between atoms: _162  and  _164
REMARK   70  A    between atoms: _164  and  _165
REMARK   71  A    between atoms: _164  and  _167
REMARK   72  A    between atoms: _167  and  _168
REMARK   73  A    between atoms: _168  and  _169
REMARK   74  A    between atoms: _174  and  _176
REMARK   75  A    between atoms: _176  and  _177
REMARK   76  A    between atoms: _176  and  _179
REMARK   77  A    between atoms: _179  and  _180
REMARK   78  A    between atoms: _183  and  _185
REMARK   79  A    between atoms: _185  and  _186
REMARK   80  A    between atoms: _188  and  _190
REMARK   81  A    between atoms: _190  and  _191
REMARK   82  A    between atoms: _190  and  _193
REMARK   83  A    between atoms: _193  and  _194
REMARK   84  A    between atoms: _197  and  _199
REMARK   85  A    between atoms: _199  and  _200
REMARK   86  A    between atoms: _199  and  _202
REMARK   87  A    between atoms: _202  and  _203
REMARK   88  A    between atoms: _209  and  _211
REMARK   89  A    between atoms: _211  and  _212
REMARK   90  A    between atoms: _211  and  _214
REMARK   91  A    between atoms: _214  and  _215
REMARK   92  A    between atoms: _218  and  _220
REMARK   93  A    between atoms: _220  and  _221
REMARK   94  A    between atoms: _220  and  _223
REMARK   95  A    between atoms: _223  and  _224
REMARK   96  A    between atoms: _230  and  _232
REMARK   97  A    between atoms: _232  and  _233
REMARK   98  A    between atoms: _232  and  _235
REMARK   99  A    between atoms: _235  and  _236
REMARK  100  A    between atoms: _242  and  _244
REMARK  101  A    between atoms: _244  and  _245
REMARK  102  A    between atoms: _244  and  _247
REMARK  103  A    between atoms: _247  and  _248
REMARK  104  A    between atoms: _251  and  _253
REMARK  105  A    between atoms: _253  and  _254
REMARK  106  A    between atoms: _253  and  _256
REMARK  107  A    between atoms: _256  and  _257
REMARK  108  A    between atoms: _260  and  _262
REMARK  109  A    between atoms: _262  and  _263
REMARK  110  A    between atoms: _262  and  _265
REMARK  111  A    between atoms: _265  and  _266
REMARK  112  A    between atoms: _266  and  _267
REMARK  113  A    between atoms: _267  and  _268
REMARK  114  A    between atoms: _277  and  _279
REMARK  115  A    between atoms: _279  and  _280
REMARK  116  A    between atoms: _279  and  _282
REMARK  117  A    between atoms: _282  and  _283
REMARK  118  A    between atoms: _286  and  _288
REMARK  119  A    between atoms: _288  and  _289
REMARK  120  A    between atoms: _288  and  _291
REMARK  121  A    between atoms: _291  and  _292
REMARK  122  A    between atoms: _292  and  _293
REMARK  123  A    between atoms: _298  and  _300
REMARK  124  A    between atoms: _300  and  _301
REMARK  125  A    between atoms: _300  and  _303
REMARK  126  A    between atoms: _303  and  _304
REMARK  127  A    between atoms: _306  and  _308
REMARK  128  A    between atoms: _308  and  _309
REMARK  129  A    between atoms: _311  and  _313
REMARK  130  A    between atoms: _313  and  _314
REMARK  131  A    between atoms: _313  and  _316
REMARK  132  A    between atoms: _316  and  _317
REMARK  133  A    between atoms: _322  and  _324
REMARK  134  A    between atoms: _324  and  _325
REMARK  135  A    between atoms: _327  and  _329
REMARK  136  A    between atoms: _329  and  _330
REMARK  137  A    between atoms: _329  and  _332
REMARK  138  A    between atoms: _332  and  _333
REMARK  139  A    between atoms: _339  and  _341
REMARK  140  A    between atoms: _341  and  _342
REMARK  141  A    between atoms: _341  and  _344
REMARK  142  A    between atoms: _344  and  _345
REMARK  143  A    between atoms: _348  and  _350
REMARK  144  A    between atoms: _350  and  _351
REMARK  145  A    between atoms: _350  and  _353
REMARK  146  A    between atoms: _353  and  _354
REMARK  147  A    between atoms: _354  and  _355
REMARK  148  A    between atoms: _358  and  _360
REMARK  149  A    between atoms: _360  and  _361
REMARK  150  A    between atoms: _360  and  _363
REMARK  151  A    between atoms: _363  and  _364
REMARK  152  A    between atoms: _367  and  _369
REMARK  153  A    between atoms: _369  and  _370
REMARK  154  A    between atoms: _369  and  _372
REMARK  155  A    between atoms: _375  and  _377
REMARK  156  A    between atoms: _377  and  _378
REMARK  157  A    between atoms: _377  and  _380
REMARK  158  A    between atoms: _380  and  _381
REMARK  159  A    between atoms: _384  and  _386
REMARK  160  A    between atoms: _386  and  _387
REMARK  161  A    between atoms: _386  and  _389
REMARK  162  A    between atoms: _389  and  _390
REMARK  163  A    between atoms: _395  and  _397
REMARK  164  A    between atoms: _397  and  _398
REMARK  165  A    between atoms: _400  and  _402
REMARK  166  A    between atoms: _402  and  _403
REMARK  167  A    between atoms: _402  and  _405
REMARK  168  A    between atoms: _405  and  _406
REMARK  169  A    between atoms: _406  and  _407
REMARK  170  A    between atoms: _409  and  _411
REMARK  171  A    between atoms: _411  and  _412
REMARK  172  A    between atoms: _411  and  _414
REMARK  173  A    between atoms: _417  and  _419
REMARK  174  A    between atoms: _419  and  _420
REMARK  175  A    between atoms: _419  and  _422
REMARK  176  A    between atoms: _422  and  _423
REMARK  177  A    between atoms: _425  and  _427
REMARK  178  A    between atoms: _427  and  _428
REMARK  179  A    between atoms: _427  and  _430
REMARK  180  A    between atoms: _430  and  _431
REMARK  181  A    between atoms: _433  and  _435
REMARK  182  A    between atoms: _435  and  _436
REMARK  183  A    between atoms: _435  and  _438
REMARK  184  A    between atoms: _438  and  _439
REMARK  185  A    between atoms: _439  and  _440
REMARK  186  A    between atoms: _445  and  _447
REMARK  187  A    between atoms: _447  and  _448
REMARK  188  A    between atoms: _451  and  _453
REMARK  189  A    between atoms: _453  and  _454
REMARK  190  A    between atoms: _453  and  _456
REMARK  191  A    between atoms: _456  and  _457
REMARK  192  A    between atoms: _457  and  _458
REMARK  193  A    between atoms: _460  and  _462
REMARK  194  A    between atoms: _462  and  _463
REMARK  195  A    between atoms: _462  and  _465
REMARK  196  A    between atoms: _465  and  _466
REMARK  197  A    between atoms: _471  and  _472
REMARK  198  A    between atoms: _474  and  _476
REMARK  199  A    between atoms: _476  and  _477
REMARK  200  A    between atoms: _476  and  _479
REMARK  201  A    between atoms: _479  and  _480
REMARK  202  A    between atoms: _483  and  _485
REMARK  203  A    between atoms: _485  and  _486
REMARK  204  A    between atoms: _485  and  _488
REMARK  205  A    between atoms: _488  and  _489
REMARK  206  A    between atoms: _491  and  _493
REMARK  207  A    between atoms: _493  and  _494
REMARK  208  A    between atoms: _493  and  _496
REMARK  209  A    between atoms: _496  and  _497
REMARK  210  A    between atoms: _500  and  _502
REMARK  211  A    between atoms: _502  and  _503
REMARK  212  A    between atoms: _502  and  _505
REMARK  213  A    between atoms: _505  and  _506
REMARK  214  A    between atoms: _506  and  _507
REMARK  215  A    between atoms: _509  and  _511
REMARK  216  A    between atoms: _511  and  _512
REMARK  217  A    between atoms: _511  and  _514
REMARK  218  A    between atoms: _514  and  _515
REMARK  219  A    between atoms: _520  and  _521
REMARK  220  A    between atoms: _523  and  _525
REMARK  221  A    between atoms: _525  and  _526
REMARK  222  A    between atoms: _525  and  _528
REMARK  223  A    between atoms: _528  and  _529
REMARK  224  A    between atoms: _529  and  _530
REMARK  225  A    between atoms: _530  and  _531
REMARK  226  A    between atoms: _540  and  _542
REMARK  227  A    between atoms: _542  and  _543
REMARK  228  A    between atoms: _542  and  _545
REMARK  229  A    between atoms: _545  and  _546
REMARK  230  A    between atoms: _548  and  _550
REMARK  231  A    between atoms: _550  and  _551
REMARK  232  A    between atoms: _550  and  _553
REMARK  233  A    between atoms: _553  and  _554
REMARK  234  A    between atoms: _559  and  _560
REMARK  235  A    between atoms: _562  and  _564
REMARK  236  A    between atoms: _564  and  _565
REMARK  237  A    between atoms: _568  and  _570
REMARK  238  A    between atoms: _570  and  _571
REMARK  239  A    between atoms: _574  and  _576
REMARK  240  A    between atoms: _576  and  _577
REMARK  241  A    between atoms: _576  and  _579
REMARK  242  A    between atoms: _579  and  _580
REMARK  243  A    between atoms: _580  and  _581
REMARK  244  A    between atoms: _581  and  _582
REMARK  245  A    between atoms: _591  and  _593
REMARK  246  A    between atoms: _593  and  _594
REMARK  247  A    between atoms: _593  and  _596
REMARK  248  A    between atoms: _599  and  _601
REMARK  249  A    between atoms: _601  and  _602
REMARK  250  A    between atoms: _604  and  _606
REMARK  251  A    between atoms: _606  and  _607
REMARK  252  A    between atoms: _606  and  _609
REMARK  253  A    between atoms: _609  and  _610
REMARK  254  A    between atoms: _613  and  _615
REMARK  255  A    between atoms: _615  and  _616
REMARK  256  A    between atoms: _619  and  _621
REMARK  257  A    between atoms: _621  and  _622
REMARK  258  A    between atoms: _621  and  _624
REMARK  259  A    between atoms: _624  and  _625
REMARK  260  A    between atoms: _628  and  _630
REMARK  261  A    between atoms: _630  and  _631
REMARK  262  A    between atoms: _630  and  _633
REMARK  263  A    between atoms: _633  and  _634
REMARK  264  A    between atoms: _639  and  _640
REMARK  265  A    between atoms: _642  and  _644
REMARK  266  A    between atoms: _644  and  _645
REMARK  267  A    between atoms: _644  and  _647
REMARK  268  A    between atoms: _647  and  _648
REMARK  269  A    between atoms: _648  and  _649
REMARK  270  A    between atoms: _651  and  _653
REMARK  271  A    between atoms: _653  and  _654
REMARK  272  A    between atoms: _653  and  _656
REMARK  273  A    between atoms: _656  and  _657
REMARK  274  A    between atoms: _657  and  _658
REMARK  275  A    between atoms: _661  and  _663
REMARK  276  A    between atoms: _663  and  _664
REMARK  277  A    between atoms: _663  and  _666
REMARK  278  A    between atoms: _666  and  _667
REMARK  279  A    between atoms: _673  and  _675
REMARK  280  A    between atoms: _675  and  _676
REMARK  281  A    between atoms: _675  and  _678
REMARK  282  A    between atoms: _678  and  _679
REMARK  283  A    between atoms: _684  and  _686
REMARK  284  A    between atoms: _686  and  _687
REMARK  285  A    between atoms: _686  and  _689
REMARK  286  A    between atoms: _689  and  _690
REMARK  287  A    between atoms: _700  and  _702
REMARK  288  A    between atoms: _702  and  _703
REMARK  289  A    between atoms: _702  and  _705
REMARK  290  A    between atoms: _708  and  _710
REMARK  291  A    between atoms: _710  and  _711
REMARK  292  A    between atoms: _710  and  _713
REMARK  293  A    between atoms: _713  and  _714
REMARK  294  A    between atoms: _717  and  _719
REMARK  295  A    between atoms: _719  and  _720
REMARK  296  A    between atoms: _719  and  _722
REMARK  297  A    between atoms: _722  and  _723
REMARK  298  A    between atoms: _723  and  _724
REMARK  299  A    between atoms: _726  and  _728
REMARK  300  A    between atoms: _728  and  _729
REMARK  301  A    between atoms: _728  and  _731
REMARK  302  A    between atoms: _731  and  _732
REMARK  303  A    between atoms: _735  and  _737
REMARK  304  A    between atoms: _737  and  _738
REMARK  305  A    between atoms: _737  and  _740
REMARK  306  A    between atoms: _740  and  _741
REMARK  307  A    between atoms: _744  and  _746
REMARK  308  A    between atoms: _746  and  _747
REMARK  309  A    between atoms: _746  and  _749
REMARK  310  A    between atoms: _749  and  _750
REMARK  311  A    between atoms: _753  and  _755
REMARK  312  A    between atoms: _755  and  _756
REMARK  313  A    between atoms: _755  and  _758
REMARK  314  A    between atoms: _758  and  _759
REMARK  315  A    between atoms: _762  and  _764
REMARK  316  A    between atoms: _764  and  _765
REMARK  317  A    between atoms: _767  and  _769
REMARK  318  A    between atoms: _769  and  _770
REMARK  319  A    between atoms: _769  and  _772
REMARK  320  A    between atoms: _772  and  _773
REMARK  321  A    between atoms: _775  and  _777
REMARK  322  A    between atoms: _777  and  _778
REMARK  323  A    between atoms: _777  and  _780
REMARK  324  A    between atoms: _780  and  _781
REMARK  325  A    between atoms: _791  and  _793
REMARK  326  A    between atoms: _793  and  _794
REMARK  327  A    between atoms: _793  and  _796
REMARK  328  A    between atoms: _796  and  _797
REMARK  329  A    between atoms: _799  and  _801
REMARK  330  A    between atoms: _801  and  _802
REMARK  331  A    between atoms: _801  and  _804
REMARK  332  A    between atoms: _804  and  _805
REMARK  333  A    between atoms: _808  and  _810
REMARK  334  A    between atoms: _810  and  _811
REMARK  335  A    between atoms: _814  and  _816
REMARK  336  A    between atoms: _816  and  _817
REMARK  337  A    between atoms: _816  and  _819
REMARK  338  A    between atoms: _819  and  _820
REMARK  339  A    between atoms: _822  and  _824
REMARK  340  A    between atoms: _824  and  _825
REMARK  341  A    between atoms: _824  and  _827
REMARK  342  A    between atoms: _827  and  _828
REMARK  343  A    between atoms: _828  and  _829
REMARK  344  A    between atoms: _832  and  _834
REMARK  345  A    between atoms: _834  and  _835
REMARK  346  A    between atoms: _834  and  _837
REMARK  347  A    between atoms: _837  and  _838
REMARK  348  A    between atoms: _840  and  _842
REMARK  349  A    between atoms: _842  and  _843
REMARK  350  A    between atoms: _842  and  _845
REMARK  351  A    between atoms: _845  and  _846
REMARK  352  A    between atoms: _846  and  _847
REMARK  353  A    between atoms: _852  and  _854
REMARK  354  A    between atoms: _854  and  _855
REMARK  355  A    between atoms: _854  and  _857
REMARK  356  A    between atoms: _857  and  _858
REMARK  357  A    between atoms: _858  and  _859
REMARK  358  A    between atoms: _864  and  _866
REMARK  359  A    between atoms: _866  and  _867
REMARK  360  A    between atoms: _866  and  _869
REMARK  361  A    between atoms: _869  and  _870
REMARK  362  A    between atoms: _873  and  _875
REMARK  363  A    between atoms: _875  and  _876
REMARK  364  A    between atoms: _875  and  _878
REMARK  365  A    between atoms: _878  and  _879
REMARK  366  A    between atoms: _882  and  _884
REMARK  367  A    between atoms: _884  and  _885
REMARK  368  A    between atoms: _884  and  _887
REMARK  369  A    between atoms: _887  and  _888
REMARK  370  A    between atoms: _895  and  _896
REMARK  371  A    between atoms: _901  and  _903
REMARK  372  A    between atoms: _903  and  _904
REMARK  373  A    between atoms: _903  and  _906
REMARK  374  A    between atoms: _906  and  _907
REMARK  375  A    between atoms: _912  and  _913
REMARK  376  A    between atoms: _915  and  _917
REMARK  377  A    between atoms: _917  and  _918
REMARK  378  A    between atoms: _917  and  _920
REMARK  379  A    between atoms: _920  and  _921
REMARK  380  A    between atoms: _926  and  _928
REMARK  381  A    between atoms: _928  and  _929
REMARK  382  A    between atoms: _928  and  _931
REMARK  383  A    between atoms: _931  and  _932
REMARK  384  A    between atoms: _938  and  _940
REMARK  385  A    between atoms: _940  and  _941
REMARK  386  A    between atoms: _940  and  _943
REMARK  387  A    between atoms: _943  and  _944
REMARK  388  A    between atoms: _947  and  _949
REMARK  389  A    between atoms: _949  and  _950
REMARK  390  A    between atoms: _949  and  _952
REMARK  391  A    between atoms: _952  and  _953
REMARK  392  A    between atoms: _958  and  _960
REMARK  393  A    between atoms: _960  and  _961
REMARK  394  A    between atoms: _960  and  _963
REMARK  395  A    between atoms: _963  and  _964
REMARK  396  A    between atoms: _970  and  _972
REMARK  397  A    between atoms: _972  and  _973
REMARK  398  A    between atoms: _972  and  _975
REMARK  399  A    between atoms: _975  and  _976
REMARK  400  A    between atoms: _976  and  _977
REMARK  401  A    between atoms: _979  and  _981
REMARK  402  A    between atoms: _981  and  _982
REMARK  403  A    between atoms: _981  and  _984
REMARK  404  A    between atoms: _984  and  _985
REMARK  405  A    between atoms: _988  and  _990
REMARK  406  A    between atoms: _990  and  _991
REMARK  407  A    between atoms: _990  and  _993
REMARK  408  A    between atoms: _993  and  _994
REMARK  409  A    between atoms: _999  and  _1001
REMARK  410  A    between atoms: _1001  and  _1002
REMARK  411  A    between atoms: _1001  and  _1004
REMARK  412  A    between atoms: _1004  and  _1005
REMARK  413  A    between atoms: _1010  and  _1011
REMARK                            x       y       z     vdW  Elec       q    Type
REMARK                         _______ _______ _______ _____ _____    ______ ____
ROOT
ATOM      1  CA  ASP A   4      -8.539   2.407  30.657  0.00  0.00    +0.160 C 
ENDROOT
BRANCH   1   2
ATOM      2  C   ASP A   4      -9.808   2.858  29.928  0.00  0.00    +0.241 C 
ATOM      3  N   GLY A   5     -10.811   1.981  29.929  0.00  0.00    -0.295 N 
ATOM      4  H   GLY A   5     -10.647   1.036  30.331  0.00  0.00    +0.150 HD
ATOM      5  O   ASP A   4      -9.873   3.964  29.387  0.00  0.00    -0.273 OA
BRANCH   3   6
ATOM      6  CA  GLY A   5     -12.133   2.293  29.388  0.00  0.00    +0.176 C 
BRANCH   6   7
ATOM      7  C   GLY A   5     -12.748   3.546  29.979  0.00  0.00    +0.243 C 
ATOM      8  O   GLY A   5     -12.516   3.868  31.147  0.00  0.00    -0.273 OA
ATOM      9  N   LEU A   6     -13.532   4.257  29.176  0.00  0.00    -0.297 N 
ATOM     10  H   LEU A   6     -13.770   3.887  28.234  0.00  0.00    +0.150 HD
BRANCH   9  11
ATOM     11  CA  LEU A   6     -14.066   5.551  29.595  0.00  0.00    +0.149 C 
BRANCH  11  12
ATOM     12  C   LEU A   6     -15.552   5.537  29.925  0.00  0.00    +0.241 C 
ATOM     13  O   LEU A   6     -15.962   6.075  30.953  0.00  0.00    -0.273 OA
ATOM     14  N   PHE A   7     -16.351   4.922  29.057  0.00  0.00    -0.298 N 
ATOM     15  H   PHE A   7     -15.931   4.324  28.317  0.00  0.00    +0.150 HD
BRANCH  14  16
ATOM     16  CA  PHE A   7     -17.803   5.066  29.117  0.00  0.00    +0.141 C 
BRANCH  16  17
ATOM     17  C   PHE A   7     -18.515   3.928  29.848  0.00  0.00    +0.227 C 
ATOM     18  O   PHE A   7     -18.073   2.778  29.820  0.00  0.00    -0.286 OA
ENDBRANCH  16  17
BRANCH  16  19
ATOM     19  CB  PHE A   7     -18.381   5.234  27.708  0.00  0.00    +0.054 C 
BRANCH  19  20
ATOM     20  CG  PHE A   7     -17.651   6.251  26.865  0.00  0.00    -0.020 A 
ATOM     21  CD2 PHE A   7     -17.739   7.611  27.153  0.00  0.00    -0.004 A 
ATOM     22  CE2 PHE A   7     -17.064   8.549  26.376  0.00  0.00    -0.000 A 
ATOM     23  CZ  PHE A   7     -16.298   8.131  25.293  0.00  0.00    -0.000 A 
ATOM     24  CE1 PHE A   7     -16.206   6.778  24.994  0.00  0.00    -0.000 A 
ATOM     25  CD1 PHE A   7     -16.881   5.846  25.780  0.00  0.00    -0.004 A 
ENDBRANCH  19  20
ENDBRANCH  16  19
ENDBRANCH  14  16
ENDBRANCH  11  12
BRANCH  11  26
ATOM     26  CB  LEU A   6     -13.787   6.626  28.536  0.00  0.00    +0.029 C 
BRANCH  26  27
ATOM     27  CG  LEU A   6     -12.364   7.164  28.361  0.00  0.00    +0.002 C 
ATOM     28  CD2 LEU A   6     -11.829   7.802  29.643  0.00  0.00    +0.000 C 
ATOM     29  CD1 LEU A   6     -12.338   8.161  27.214  0.00  0.00    +0.000 C 
ENDBRANCH  26  27
ENDBRANCH  11  26
ENDBRANCH   9  11
ENDBRANCH   6   7
ENDBRANCH   3   6
ENDBRANCH   1   2
BRANCH   1  31
ATOM     30  C   GLN A   3      -7.574   0.580  29.270  0.00  0.00    +0.241 C 
ATOM     31  N   ASP A   4      -8.040   1.044  30.431  0.00  0.00    -0.297 N 
ATOM     32  H   ASP A   4      -8.051   0.389  31.239  0.00  0.00    +0.150 HD
ATOM     33  O   GLN A   3      -7.534   1.239  28.227  0.00  0.00    -0.273 OA
BRANCH  30  34
ATOM     34  CA  GLN A   3      -7.072  -0.867  29.319  0.00  0.00    +0.149 C 
BRANCH  34  36
ATOM     35  C   GLY A   2      -9.236  -1.864  29.973  0.00  0.00    +0.243 C 
ATOM     36  N   GLN A   3      -7.928  -1.696  30.176  0.00  0.00    -0.297 N 
ATOM     37  H   GLN A   3      -7.491  -2.179  30.986  0.00  0.00    +0.150 HD
ATOM     38  O   GLY A   2      -9.835  -1.456  28.974  0.00  0.00    -0.273 OA
BRANCH  35  39
ATOM     39  CA  GLY A   2      -9.974  -2.604  31.070  0.00  0.00    +0.176 C 
BRANCH  39  41
ATOM     40  C   GLY A   1     -10.171  -0.758  32.666  0.00  0.00    +0.240 C 
ATOM     41  N   GLY A   2      -9.725  -1.978  32.367  0.00  0.00    -0.295 N 
ATOM     42  H   GLY A   2      -9.181  -2.503  33.081  0.00  0.00    +0.150 HD
ATOM     43  O   GLY A   1     -10.869  -0.088  31.901  0.00  0.00    -0.274 OA
BRANCH  40  44
ATOM     44  CA  GLY A   1      -9.785  -0.212  34.030  0.00  0.00    +0.169 C 
BRANCH  44  45
ATOM     45  N   GLY A   1      -8.954  -1.096  34.845  0.00  0.00    -0.236 NA
ATOM     46  H   GLY A   1      -9.313  -2.040  35.094  0.00  0.00    +0.142 HD
ENDBRANCH  44  45
ENDBRANCH  40  44
ENDBRANCH  39  41
ENDBRANCH  35  39
ENDBRANCH  34  36
BRANCH  34  47
ATOM     47  CB  GLN A   3      -6.901  -1.485  27.925  0.00  0.00    +0.039 C 
BRANCH  47  48
ATOM     48  CG  GLN A   3      -6.193  -2.832  27.959  0.00  0.00    +0.087 C 
BRANCH  48  49
ATOM     49  CD  GLN A   3      -6.180  -3.538  26.621  0.00  0.00    +0.219 C 
ATOM     50  OE1 GLN A   3      -5.122  -3.931  26.135  0.00  0.00    -0.275 OA
ATOM     51  NE2 GLN A   3      -7.353  -3.708  26.020  0.00  0.00    -0.329 N 
ATOM     52 HE21 GLN A   3      -8.223  -3.358  26.470  0.00  0.00    +0.145 HD
ATOM     53 HE22 GLN A   3      -7.401  -4.191  25.100  0.00  0.00    +0.145 HD
ENDBRANCH  48  49
ENDBRANCH  47  48
ENDBRANCH  34  47
ENDBRANCH  30  34
ENDBRANCH   1  31
BRANCH   1  54
ATOM     54  CB  ASP A   4      -7.409   3.439  30.521  0.00  0.00    +0.143 C 
BRANCH  54  55
ATOM     55  CG  ASP A   4      -6.262   3.177  31.487  0.00  0.00    +0.367 C 
ATOM     56  OD2 ASP A   4      -6.532   2.842  32.663  0.00  0.00    -0.246 OA
ATOM     57  OD1 ASP A   4      -5.090   3.303  31.071  0.00  0.00    -0.246 OA
ENDBRANCH  54  55
ENDBRANCH   1  54
TORSDOF 23
REMARK  Name = ../refined-set-2016/3drg/3drg_pocket.pdb
REMARK  413 active torsions:
REMARK  status: ('A' for Active; 'I' for Inactive)
REMARK    1  A    between atoms: _1  and  _3
REMARK    2  A    between atoms: _3  and  _4
REMARK    3  A    between atoms: _3  and  _6
REMARK    4  A    between atoms: _6  and  _7
REMARK    5  A    between atoms: _12  and  _13
REMARK    6  A    between atoms: _15  and  _17
REMARK    7  A    between atoms: _17  and  _18
REMARK    8  A    between atoms: _17  and  _20
REMARK    9  A    between atoms: _20  and  _21
REMARK   10  A    between atoms: _21  and  _22
REMARK   11  A    between atoms: _27  and  _29
REMARK   12  A    between atoms: _29  and  _30
REMARK   13  A    between atoms: _29  and  _32
REMARK   14  A    between atoms: _32  and  _33
REMARK   15  A    between atoms: _35  and  _37
REMARK   16  A    between atoms: _37  and  _38
REMARK   17  A    between atoms: _37  and  _40
REMARK   18  A    between atoms: _40  and  _41
REMARK   19  A    between atoms: _44  and  _46
REMARK   20  A    between atoms: _46  and  _47
REMARK   21  A    between atoms: _46  and  _49
REMARK   22  A    between atoms: _49  and  _50
REMARK   23  A    between atoms: _52  and  _54
REMARK   24  A    between atoms: _54  and  _55
REMARK   25  A    between atoms: _54  and  _57
REMARK   26  A    between atoms: _57  and  _58
REMARK   27  A    between atoms: _61  and  _63
REMARK   28  A    between atoms: _63  and  _64
REMARK   29  A    between atoms: _63  and  _66
REMARK   30  A    between atoms: _66  and  _67
REMARK   31  A    between atoms: _69  and  _71
REMARK   32  A    between atoms: _71  and  _72
REMARK   33  A    between atoms: _74  and  _76
REMARK   34  A    between atoms: _76  and  _77
REMARK   35  A    between atoms: _76  and  _79
REMARK   36  A    between atoms: _79  and  _80
REMARK   37  A    between atoms: _82  and  _84
REMARK   38  A    between atoms: _84  and  _85
REMARK   39  A    between atoms: _84  and  _87
REMARK   40  A    between atoms: _87  and  _88
REMARK   41  A    between atoms: _93  and  _95
REMARK   42  A    between atoms: _95  and  _96
REMARK   43  A    between atoms: _95  and  _98
REMARK   44  A    between atoms: _98  and  _99
REMARK   45  A    between atoms: _102  and  _104
REMARK   46  A    between atoms: _104  and  _105
REMARK   47  A    between atoms: _108  and  _110
REMARK   48  A    between atoms: _110  and  _111
REMARK   49  A    between atoms: _110  and  _113
REMARK   50  A    between atoms: _113  and  _114
REMARK   51  A    between atoms: _117  and  _119
REMARK   52  A    between atoms: _119  and  _120
REMARK   53  A    between atoms: _119  and  _122
REMARK   54  A    between atoms: _122  and  _123
REMARK   55  A    between atoms: _129  and  _131
REMARK   56  A    between atoms: _131  and  _132
REMARK   57  A    between atoms: _135  and  _137
REMARK   58  A    between atoms: _137  and  _138
REMARK   59  A    between atoms: _137  and  _140
REMARK   60  A    between atoms: _140  and  _141
REMARK   61  A    between atoms: _144  and  _146
REMARK   62  A    between atoms: _146  and  _147
REMARK   63  A    between atoms: _146  and  _149
REMARK   64  A    between atoms: _149  and  _150
REMARK   65  A    between atoms: _152  and  _154
REMARK   66  A    between atoms: _154  and  _155
REMARK   67  A    between atoms: _157  and  _159
REMARK   68  A    between atoms: _159  and  _160
REMARK   69  A    between atoms: _162  and  _164
REMARK   70  A    between atoms: _164  and  _165
REMARK   71  A    between atoms: _164  and  _167
REMARK   72  A    between atoms: _167  and  _168
REMARK   73  A    between atoms: _168  and  _169
REMARK   74  A    between atoms: _174  and  _176
REMARK   75  A    between atoms: _176  and  _177
REMARK   76  A    between atoms: _176  and  _179
REMARK   77  A    between atoms: _179  and  _180
REMARK   78  A    between atoms: _183  and  _185
REMARK   79  A    between atoms: _185  and  _186
REMARK   80  A    between atoms: _188  and  _190
REMARK   81  A    between atoms: _190  and  _191
REMARK   82  A    between atoms: _190  and  _193
REMARK   83  A    between atoms: _193  and  _194
REMARK   84  A    between atoms: _197  and  _199
REMARK   85  A    between atoms: _199  and  _200
REMARK   86  A    between atoms: _199  and  _202
REMARK   87  A    between atoms: _202  and  _203
REMARK   88  A    between atoms: _209  and  _211
REMARK   89  A    between atoms: _211  and  _212
REMARK   90  A    between atoms: _211  and  _214
REMARK   91  A    between atoms: _214  and  _215
REMARK   92  A    between atoms: _218  and  _220
REMARK   93  A    between atoms: _220  and  _221
REMARK   94  A    between atoms: _220  and  _223
REMARK   95  A    between atoms: _223  and  _224
REMARK   96  A    between atoms: _230  and  _232
REMARK   97  A    between atoms: _232  and  _233
REMARK   98  A    between atoms: _232  and  _235
REMARK   99  A    between atoms: _235  and  _236
REMARK  100  A    between atoms: _242  and  _244
REMARK  101  A    between atoms: _244  and  _245
REMARK  102  A    between atoms: _244  and  _247
REMARK  103  A    between atoms: _247  and  _248
REMARK  104  A    between atoms: _251  and  _253
REMARK  105  A    between atoms: _253  and  _254
REMARK  106  A    between atoms: _253  and  _256
REMARK  107  A    between atoms: _256  and  _257
REMARK  108  A    between atoms: _260  and  _262
REMARK  109  A    between atoms: _262  and  _263
REMARK  110  A    between atoms: _262  and  _265
REMARK  111  A    between atoms: _265  and  _266
REMARK  112  A    between atoms: _266  and  _267
REMARK  113  A    between atoms: _267  and  _268
REMARK  114  A    between atoms: _277  and  _279
REMARK  115  A    between atoms: _279  and  _280
REMARK  116  A    between atoms: _279  and  _282
REMARK  117  A    between atoms: _282  and  _283
REMARK  118  A    between atoms: _286  and  _288
REMARK  119  A    between atoms: _288  and  _289
REMARK  120  A    between atoms: _288  and  _291
REMARK  121  A    between atoms: _291  and  _292
REMARK  122  A    between atoms: _292  and  _293
REMARK  123  A    between atoms: _298  and  _300
REMARK  124  A    between atoms: _300  and  _301
REMARK  125  A    between atoms: _300  and  _303
REMARK  126  A    between atoms: _303  and  _304
REMARK  127  A    between atoms: _306  and  _308
REMARK  128  A    between atoms: _308  and  _309
REMARK  129  A    between atoms: _311  and  _313
REMARK  130  A    between atoms: _313  and  _314
REMARK  131  A    between atoms: _313  and  _316
REMARK  132  A    between atoms: _316  and  _317
REMARK  133  A    between atoms: _322  and  _324
REMARK  134  A    between atoms: _324  and  _325
REMARK  135  A    between atoms: _327  and  _329
REMARK  136  A    between atoms: _329  and  _330
REMARK  137  A    between atoms: _329  and  _332
REMARK  138  A    between atoms: _332  and  _333
REMARK  139  A    between atoms: _339  and  _341
REMARK  140  A    between atoms: _341  and  _342
REMARK  141  A    between atoms: _341  and  _344
REMARK  142  A    between atoms: _344  and  _345
REMARK  143  A    between atoms: _348  and  _350
REMARK  144  A    between atoms: _350  and  _351
REMARK  145  A    between atoms: _350  and  _353
REMARK  146  A    between atoms: _353  and  _354
REMARK  147  A    between atoms: _354  and  _355
REMARK  148  A    between atoms: _358  and  _360
REMARK  149  A    between atoms: _360  and  _361
REMARK  150  A    between atoms: _360  and  _363
REMARK  151  A    between atoms: _363  and  _364
REMARK  152  A    between atoms: _367  and  _369
REMARK  153  A    between atoms: _369  and  _370
REMARK  154  A    between atoms: _369  and  _372
REMARK  155  A    between atoms: _375  and  _377
REMARK  156  A    between atoms: _377  and  _378
REMARK  157  A    between atoms: _377  and  _380
REMARK  158  A    between atoms: _380  and  _381
REMARK  159  A    between atoms: _384  and  _386
REMARK  160  A    between atoms: _386  and  _387
REMARK  161  A    between atoms: _386  and  _389
REMARK  162  A    between atoms: _389  and  _390
REMARK  163  A    between atoms: _395  and  _397
REMARK  164  A    between atoms: _397  and  _398
REMARK  165  A    between atoms: _400  and  _402
REMARK  166  A    between atoms: _402  and  _403
REMARK  167  A    between atoms: _402  and  _405
REMARK  168  A    between atoms: _405  and  _406
REMARK  169  A    between atoms: _406  and  _407
REMARK  170  A    between atoms: _409  and  _411
REMARK  171  A    between atoms: _411  and  _412
REMARK  172  A    between atoms: _411  and  _414
REMARK  173  A    between atoms: _417  and  _419
REMARK  174  A    between atoms: _419  and  _420
REMARK  175  A    between atoms: _419  and  _422
REMARK  176  A    between atoms: _422  and  _423
REMARK  177  A    between atoms: _425  and  _427
REMARK  178  A    between atoms: _427  and  _428
REMARK  179  A    between atoms: _427  and  _430
REMARK  180  A    between atoms: _430  and  _431
REMARK  181  A    between atoms: _433  and  _435
REMARK  182  A    between atoms: _435  and  _436
REMARK  183  A    between atoms: _435  and  _438
REMARK  184  A    between atoms: _438  and  _439
REMARK  185  A    between atoms: _439  and  _440
REMARK  186  A    between atoms: _445  and  _447
REMARK  187  A    between atoms: _447  and  _448
REMARK  188  A    between atoms: _451  and  _453
REMARK  189  A    between atoms: _453  and  _454
REMARK  190  A    between atoms: _453  and  _456
REMARK  191  A    between atoms: _456  and  _457
REMARK  192  A    between atoms: _457  and  _458
REMARK  193  A    between atoms: _460  and  _462
REMARK  194  A    between atoms: _462  and  _463
REMARK  195  A    between atoms: _462  and  _465
REMARK  196  A    between atoms: _465  and  _466
REMARK  197  A    between atoms: _471  and  _472
REMARK  198  A    between atoms: _474  and  _476
REMARK  199  A    between atoms: _476  and  _477
REMARK  200  A    between atoms: _476  and  _479
REMARK  201  A    between atoms: _479  and  _480
REMARK  202  A    between atoms: _483  and  _485
REMARK  203  A    between atoms: _485  and  _486
REMARK  204  A    between atoms: _485  and  _488
REMARK  205  A    between atoms: _488  and  _489
REMARK  206  A    between atoms: _491  and  _493
REMARK  207  A    between atoms: _493  and  _494
REMARK  208  A    between atoms: _493  and  _496
REMARK  209  A    between atoms: _496  and  _497
REMARK  210  A    between atoms: _500  and  _502
REMARK  211  A    between atoms: _502  and  _503
REMARK  212  A    between atoms: _502  and  _505
REMARK  213  A    between atoms: _505  and  _506
REMARK  214  A    between atoms: _506  and  _507
REMARK  215  A    between atoms: _509  and  _511
REMARK  216  A    between atoms: _511  and  _512
REMARK  217  A    between atoms: _511  and  _514
REMARK  218  A    between atoms: _514  and  _515
REMARK  219  A    between atoms: _520  and  _521
REMARK  220  A    between atoms: _523  and  _525
REMARK  221  A    between atoms: _525  and  _526
REMARK  222  A    between atoms: _525  and  _528
REMARK  223  A    between atoms: _528  and  _529
REMARK  224  A    between atoms: _529  and  _530
REMARK  225  A    between atoms: _530  and  _531
REMARK  226  A    between atoms: _540  and  _542
REMARK  227  A    between atoms: _542  and  _543
REMARK  228  A    between atoms: _542  and  _545
REMARK  229  A    between atoms: _545  and  _546
REMARK  230  A    between atoms: _548  and  _550
REMARK  231  A    between atoms: _550  and  _551
REMARK  232  A    between atoms: _550  and  _553
REMARK  233  A    between atoms: _553  and  _554
REMARK  234  A    between atoms: _559  and  _560
REMARK  235  A    between atoms: _562  and  _564
REMARK  236  A    between atoms: _564  and  _565
REMARK  237  A    between atoms: _568  and  _570
REMARK  238  A    between atoms: _570  and  _571
REMARK  239  A    between atoms: _574  and  _576
REMARK  240  A    between atoms: _576  and  _577
REMARK  241  A    between atoms: _576  and  _579
REMARK  242  A    between atoms: _579  and  _580
REMARK  243  A    between atoms: _580  and  _581
REMARK  244  A    between atoms: _581  and  _582
REMARK  245  A    between atoms: _591  and  _593
REMARK  246  A    between atoms: _593  and  _594
REMARK  247  A    between atoms: _593  and  _596
REMARK  248  A    between atoms: _599  and  _601
REMARK  249  A    between atoms: _601  and  _602
REMARK  250  A    between atoms: _604  and  _606
REMARK  251  A    between atoms: _606  and  _607
REMARK  252  A    between atoms: _606  and  _609
REMARK  253  A    between atoms: _609  and  _610
REMARK  254  A    between atoms: _613  and  _615
REMARK  255  A    between atoms: _615  and  _616
REMARK  256  A    between atoms: _619  and  _621
REMARK  257  A    between atoms: _621  and  _622
REMARK  258  A    between atoms: _621  and  _624
REMARK  259  A    between atoms: _624  and  _625
REMARK  260  A    between atoms: _628  and  _630
REMARK  261  A    between atoms: _630  and  _631
REMARK  262  A    between atoms: _630  and  _633
REMARK  263  A    between atoms: _633  and  _634
REMARK  264  A    between atoms: _639  and  _640
REMARK  265  A    between atoms: _642  and  _644
REMARK  266  A    between atoms: _644  and  _645
REMARK  267  A    between atoms: _644  and  _647
REMARK  268  A    between atoms: _647  and  _648
REMARK  269  A    between atoms: _648  and  _649
REMARK  270  A    between atoms: _651  and  _653
REMARK  271  A    between atoms: _653  and  _654
REMARK  272  A    between atoms: _653  and  _656
REMARK  273  A    between atoms: _656  and  _657
REMARK  274  A    between atoms: _657  and  _658
REMARK  275  A    between atoms: _661  and  _663
REMARK  276  A    between atoms: _663  and  _664
REMARK  277  A    between atoms: _663  and  _666
REMARK  278  A    between atoms: _666  and  _667
REMARK  279  A    between atoms: _673  and  _675
REMARK  280  A    between atoms: _675  and  _676
REMARK  281  A    between atoms: _675  and  _678
REMARK  282  A    between atoms: _678  and  _679
REMARK  283  A    between atoms: _684  and  _686
REMARK  284  A    between atoms: _686  and  _687
REMARK  285  A    between atoms: _686  and  _689
REMARK  286  A    between atoms: _689  and  _690
REMARK  287  A    between atoms: _700  and  _702
REMARK  288  A    between atoms: _702  and  _703
REMARK  289  A    between atoms: _702  and  _705
REMARK  290  A    between atoms: _708  and  _710
REMARK  291  A    between atoms: _710  and  _711
REMARK  292  A    between atoms: _710  and  _713
REMARK  293  A    between atoms: _713  and  _714
REMARK  294  A    between atoms: _717  and  _719
REMARK  295  A    between atoms: _719  and  _720
REMARK  296  A    between atoms: _719  and  _722
REMARK  297  A    between atoms: _722  and  _723
REMARK  298  A    between atoms: _723  and  _724
REMARK  299  A    between atoms: _726  and  _728
REMARK  300  A    between atoms: _728  and  _729
REMARK  301  A    between atoms: _728  and  _731
REMARK  302  A    between atoms: _731  and  _732
REMARK  303  A    between atoms: _735  and  _737
REMARK  304  A    between atoms: _737  and  _738
REMARK  305  A    between atoms: _737  and  _740
REMARK  306  A    between atoms: _740  and  _741
REMARK  307  A    between atoms: _744  and  _746
REMARK  308  A    between atoms: _746  and  _747
REMARK  309  A    between atoms: _746  and  _749
REMARK  310  A    between atoms: _749  and  _750
REMARK  311  A    between atoms: _753  and  _755
REMARK  312  A    between atoms: _755  and  _756
REMARK  313  A    between atoms: _755  and  _758
REMARK  314  A    between atoms: _758  and  _759
REMARK  315  A    between atoms: _762  and  _764
REMARK  316  A    between atoms: _764  and  _765
REMARK  317  A    between atoms: _767  and  _769
REMARK  318  A    between atoms: _769  and  _770
REMARK  319  A    between atoms: _769  and  _772
REMARK  320  A    between atoms: _772  and  _773
REMARK  321  A    between atoms: _775  and  _777
REMARK  322  A    between atoms: _777  and  _778
REMARK  323  A    between atoms: _777  and  _780
REMARK  324  A    between atoms: _780  and  _781
REMARK  325  A    between atoms: _791  and  _793
REMARK  326  A    between atoms: _793  and  _794
REMARK  327  A    between atoms: _793  and  _796
REMARK  328  A    between atoms: _796  and  _797
REMARK  329  A    between atoms: _799  and  _801
REMARK  330  A    between atoms: _801  and  _802
REMARK  331  A    between atoms: _801  and  _804
REMARK  332  A    between atoms: _804  and  _805
REMARK  333  A    between atoms: _808  and  _810
REMARK  334  A    between atoms: _810  and  _811
REMARK  335  A    between atoms: _814  and  _816
REMARK  336  A    between atoms: _816  and  _817
REMARK  337  A    between atoms: _816  and  _819
REMARK  338  A    between atoms: _819  and  _820
REMARK  339  A    between atoms: _822  and  _824
REMARK  340  A    between atoms: _824  and  _825
REMARK  341  A    between atoms: _824  and  _827
REMARK  342  A    between atoms: _827  and  _828
REMARK  343  A    between atoms: _828  and  _829
REMARK  344  A    between atoms: _832  and  _834
REMARK  345  A    between atoms: _834  and  _835
REMARK  346  A    between atoms: _834  and  _837
REMARK  347  A    between atoms: _837  and  _838
REMARK  348  A    between atoms: _840  and  _842
REMARK  349  A    between atoms: _842  and  _843
REMARK  350  A    between atoms: _842  and  _845
REMARK  351  A    between atoms: _845  and  _846
REMARK  352  A    between atoms: _846  and  _847
REMARK  353  A    between atoms: _852  and  _854
REMARK  354  A    between atoms: _854  and  _855
REMARK  355  A    between atoms: _854  and  _857
REMARK  356  A    between atoms: _857  and  _858
REMARK  357  A    between atoms: _858  and  _859
REMARK  358  A    between atoms: _864  and  _866
REMARK  359  A    between atoms: _866  and  _867
REMARK  360  A    between atoms: _866  and  _869
REMARK  361  A    between atoms: _869  and  _870
REMARK  362  A    between atoms: _873  and  _875
REMARK  363  A    between atoms: _875  and  _876
REMARK  364  A    between atoms: _875  and  _878
REMARK  365  A    between atoms: _878  and  _879
REMARK  366  A    between atoms: _882  and  _884
REMARK  367  A    between atoms: _884  and  _885
REMARK  368  A    between atoms: _884  and  _887
REMARK  369  A    between atoms: _887  and  _888
REMARK  370  A    between atoms: _895  and  _896
REMARK  371  A    between atoms: _901  and  _903
REMARK  372  A    between atoms: _903  and  _904
REMARK  373  A    between atoms: _903  and  _906
REMARK  374  A    between atoms: _906  and  _907
REMARK  375  A    between atoms: _912  and  _913
REMARK  376  A    between atoms: _915  and  _917
REMARK  377  A    between atoms: _917  and  _918
REMARK  378  A    between atoms: _917  and  _920
REMARK  379  A    between atoms: _920  and  _921
REMARK  380  A    between atoms: _926  and  _928
REMARK  381  A    between atoms: _928  and  _929
REMARK  382  A    between atoms: _928  and  _931
REMARK  383  A    between atoms: _931  and  _932
REMARK  384  A    between atoms: _938  and  _940
REMARK  385  A    between atoms: _940  and  _941
REMARK  386  A    between atoms: _940  and  _943
REMARK  387  A    between atoms: _943  and  _944
REMARK  388  A    between atoms: _947  and  _949
REMARK  389  A    between atoms: _949  and  _950
REMARK  390  A    between atoms: _949  and  _952
REMARK  391  A    between atoms: _952  and  _953
REMARK  392  A    between atoms: _958  and  _960
REMARK  393  A    between atoms: _960  and  _961
REMARK  394  A    between atoms: _960  and  _963
REMARK  395  A    between atoms: _963  and  _964
REMARK  396  A    between atoms: _970  and  _972
REMARK  397  A    between atoms: _972  and  _973
REMARK  398  A    between atoms: _972  and  _975
REMARK  399  A    between atoms: _975  and  _976
REMARK  400  A    between atoms: _976  and  _977
REMARK  401  A    between atoms: _979  and  _981
REMARK  402  A    between atoms: _981  and  _982
REMARK  403  A    between atoms: _981  and  _984
REMARK  404  A    between atoms: _984  and  _985
REMARK  405  A    between atoms: _988  and  _990
REMARK  406  A    between atoms: _990  and  _991
REMARK  407  A    between atoms: _990  and  _993
REMARK  408  A    between atoms: _993  and  _994
REMARK  409  A    between atoms: _999  and  _1001
REMARK  410  A    between atoms: _1001  and  _1002
REMARK  411  A    between atoms: _1001  and  _1004
REMARK  412  A    between atoms: _1004  and  _1005
REMARK  413  A    between atoms: _1010  and  _1011
REMARK                            x       y       z     vdW  Elec       q    Type
REMARK                         _______ _______ _______ _____ _____    ______ ____
ROOT
ATOM      1  CA  THR A   1     -22.911   0.827  29.631  0.00  0.00    +0.160 C 
ENDROOT
BRANCH   1   2
ATOM      2  N   THR A   1     -22.130   1.627  30.565  0.00  0.00    -0.237 NA
ATOM      3  H   THR A   1     -22.036   1.301  31.548  0.00  0.00    +0.142 HD
ENDBRANCH   1   2
BRANCH   1   4
ATOM      4  C   THR A   1     -24.070   0.102  30.332  0.00  0.00    +0.227 C 
ATOM      5  O   THR A   1     -23.929  -0.336  31.477  0.00  0.00    -0.287 OA
ENDBRANCH   1   4
BRANCH   1   6
ATOM      6  CB  THR A   1     -21.953  -0.159  28.879  0.00  0.00    +0.134 C 
ATOM      7  CG2 THR A   1     -22.531  -1.553  28.731  0.00  0.00    +0.034 C 
BRANCH   6   8
ATOM      8  OG1 THR A   1     -21.642   0.367  27.583  0.00  0.00    -0.383 OA
ATOM      9  HG1 THR A   1     -21.037  -0.258  27.111  0.00  0.00    +0.210 HD
ENDBRANCH   6   8
ENDBRANCH   1   6
TORSDOF 4
REMARK  Name = ../refined-set-2016/3drg/3drg_pocket.pdb
REMARK  413 active torsions:
REMARK  status: ('A' for Active; 'I' for Inactive)
REMARK    1  A    between atoms: _1  and  _3
REMARK    2  A    between atoms: _3  and  _4
REMARK    3  A    between atoms: _3  and  _6
REMARK    4  A    between atoms: _6  and  _7
REMARK    5  A    between atoms: _12  and  _13
REMARK    6  A    between atoms: _15  and  _17
REMARK    7  A    between atoms: _17  and  _18
REMARK    8  A    between atoms: _17  and  _20
REMARK    9  A    between atoms: _20  and  _21
REMARK   10  A    between atoms: _21  and  _22
REMARK   11  A    between atoms: _27  and  _29
REMARK   12  A    between atoms: _29  and  _30
REMARK   13  A    between atoms: _29  and  _32
REMARK   14  A    between atoms: _32  and  _33
REMARK   15  A    between atoms: _35  and  _37
REMARK   16  A    between atoms: _37  and  _38
REMARK   17  A    between atoms: _37  and  _40
REMARK   18  A    between atoms: _40  and  _41
REMARK   19  A    between atoms: _44  and  _46
REMARK   20  A    between atoms: _46  and  _47
REMARK   21  A    between atoms: _46  and  _49
REMARK   22  A    between atoms: _49  and  _50
REMARK   23  A    between atoms: _52  and  _54
REMARK   24  A    between atoms: _54  and  _55
REMARK   25  A    between atoms: _54  and  _57
REMARK   26  A    between atoms: _57  and  _58
REMARK   27  A    between atoms: _61  and  _63
REMARK   28  A    between atoms: _63  and  _64
REMARK   29  A    between atoms: _63  and  _66
REMARK   30  A    between atoms: _66  and  _67
REMARK   31  A    between atoms: _69  and  _71
REMARK   32  A    between atoms: _71  and  _72
REMARK   33  A    between atoms: _74  and  _76
REMARK   34  A    between atoms: _76  and  _77
REMARK   35  A    between atoms: _76  and  _79
REMARK   36  A    between atoms: _79  and  _80
REMARK   37  A    between atoms: _82  and  _84
REMARK   38  A    between atoms: _84  and  _85
REMARK   39  A    between atoms: _84  and  _87
REMARK   40  A    between atoms: _87  and  _88
REMARK   41  A    between atoms: _93  and  _95
REMARK   42  A    between atoms: _95  and  _96
REMARK   43  A    between atoms: _95  and  _98
REMARK   44  A    between atoms: _98  and  _99
REMARK   45  A    between atoms: _102  and  _104
REMARK   46  A    between atoms: _104  and  _105
REMARK   47  A    between atoms: _108  and  _110
REMARK   48  A    between atoms: _110  and  _111
REMARK   49  A    between atoms: _110  and  _113
REMARK   50  A    between atoms: _113  and  _114
REMARK   51  A    between atoms: _117  and  _119
REMARK   52  A    between atoms: _119  and  _120
REMARK   53  A    between atoms: _119  and  _122
REMARK   54  A    between atoms: _122  and  _123
REMARK   55  A    between atoms: _129  and  _131
REMARK   56  A    between atoms: _131  and  _132
REMARK   57  A    between atoms: _135  and  _137
REMARK   58  A    between atoms: _137  and  _138
REMARK   59  A    between atoms: _137  and  _140
REMARK   60  A    between atoms: _140  and  _141
REMARK   61  A    between atoms: _144  and  _146
REMARK   62  A    between atoms: _146  and  _147
REMARK   63  A    between atoms: _146  and  _149
REMARK   64  A    between atoms: _149  and  _150
REMARK   65  A    between atoms: _152  and  _154
REMARK   66  A    between atoms: _154  and  _155
REMARK   67  A    between atoms: _157  and  _159
REMARK   68  A    between atoms: _159  and  _160
REMARK   69  A    between atoms: _162  and  _164
REMARK   70  A    between atoms: _164  and  _165
REMARK   71  A    between atoms: _164  and  _167
REMARK   72  A    between atoms: _167  and  _168
REMARK   73  A    between atoms: _168  and  _169
REMARK   74  A    between atoms: _174  and  _176
REMARK   75  A    between atoms: _176  and  _177
REMARK   76  A    between atoms: _176  and  _179
REMARK   77  A    between atoms: _179  and  _180
REMARK   78  A    between atoms: _183  and  _185
REMARK   79  A    between atoms: _185  and  _186
REMARK   80  A    between atoms: _188  and  _190
REMARK   81  A    between atoms: _190  and  _191
REMARK   82  A    between atoms: _190  and  _193
REMARK   83  A    between atoms: _193  and  _194
REMARK   84  A    between atoms: _197  and  _199
REMARK   85  A    between atoms: _199  and  _200
REMARK   86  A    between atoms: _199  and  _202
REMARK   87  A    between atoms: _202  and  _203
REMARK   88  A    between atoms: _209  and  _211
REMARK   89  A    between atoms: _211  and  _212
REMARK   90  A    between atoms: _211  and  _214
REMARK   91  A    between atoms: _214  and  _215
REMARK   92  A    between atoms: _218  and  _220
REMARK   93  A    between atoms: _220  and  _221
REMARK   94  A    between atoms: _220  and  _223
REMARK   95  A    between atoms: _223  and  _224
REMARK   96  A    between atoms: _230  and  _232
REMARK   97  A    between atoms: _232  and  _233
REMARK   98  A    between atoms: _232  and  _235
REMARK   99  A    between atoms: _235  and  _236
REMARK  100  A    between atoms: _242  and  _244
REMARK  101  A    between atoms: _244  and  _245
REMARK  102  A    between atoms: _244  and  _247
REMARK  103  A    between atoms: _247  and  _248
REMARK  104  A    between atoms: _251  and  _253
REMARK  105  A    between atoms: _253  and  _254
REMARK  106  A    between atoms: _253  and  _256
REMARK  107  A    between atoms: _256  and  _257
REMARK  108  A    between atoms: _260  and  _262
REMARK  109  A    between atoms: _262  and  _263
REMARK  110  A    between atoms: _262  and  _265
REMARK  111  A    between atoms: _265  and  _266
REMARK  112  A    between atoms: _266  and  _267
REMARK  113  A    between atoms: _267  and  _268
REMARK  114  A    between atoms: _277  and  _279
REMARK  115  A    between atoms: _279  and  _280
REMARK  116  A    between atoms: _279  and  _282
REMARK  117  A    between atoms: _282  and  _283
REMARK  118  A    between atoms: _286  and  _288
REMARK  119  A    between atoms: _288  and  _289
REMARK  120  A    between atoms: _288  and  _291
REMARK  121  A    between atoms: _291  and  _292
REMARK  122  A    between atoms: _292  and  _293
REMARK  123  A    between atoms: _298  and  _300
REMARK  124  A    between atoms: _300  and  _301
REMARK  125  A    between atoms: _300  and  _303
REMARK  126  A    between atoms: _303  and  _304
REMARK  127  A    between atoms: _306  and  _308
REMARK  128  A    between atoms: _308  and  _309
REMARK  129  A    between atoms: _311  and  _313
REMARK  130  A    between atoms: _313  and  _314
REMARK  131  A    between atoms: _313  and  _316
REMARK  132  A    between atoms: _316  and  _317
REMARK  133  A    between atoms: _322  and  _324
REMARK  134  A    between atoms: _324  and  _325
REMARK  135  A    between atoms: _327  and  _329
REMARK  136  A    between atoms: _329  and  _330
REMARK  137  A    between atoms: _329  and  _332
REMARK  138  A    between atoms: _332  and  _333
REMARK  139  A    between atoms: _339  and  _341
REMARK  140  A    between atoms: _341  and  _342
REMARK  141  A    between atoms: _341  and  _344
REMARK  142  A    between atoms: _344  and  _345
REMARK  143  A    between atoms: _348  and  _350
REMARK  144  A    between atoms: _350  and  _351
REMARK  145  A    between atoms: _350  and  _353
REMARK  146  A    between atoms: _353  and  _354
REMARK  147  A    between atoms: _354  and  _355
REMARK  148  A    between atoms: _358  and  _360
REMARK  149  A    between atoms: _360  and  _361
REMARK  150  A    between atoms: _360  and  _363
REMARK  151  A    between atoms: _363  and  _364
REMARK  152  A    between atoms: _367  and  _369
REMARK  153  A    between atoms: _369  and  _370
REMARK  154  A    between atoms: _369  and  _372
REMARK  155  A    between atoms: _375  and  _377
REMARK  156  A    between atoms: _377  and  _378
REMARK  157  A    between atoms: _377  and  _380
REMARK  158  A    between atoms: _380  and  _381
REMARK  159  A    between atoms: _384  and  _386
REMARK  160  A    between atoms: _386  and  _387
REMARK  161  A    between atoms: _386  and  _389
REMARK  162  A    between atoms: _389  and  _390
REMARK  163  A    between atoms: _395  and  _397
REMARK  164  A    between atoms: _397  and  _398
REMARK  165  A    between atoms: _400  and  _402
REMARK  166  A    between atoms: _402  and  _403
REMARK  167  A    between atoms: _402  and  _405
REMARK  168  A    between atoms: _405  and  _406
REMARK  169  A    between atoms: _406  and  _407
REMARK  170  A    between atoms: _409  and  _411
REMARK  171  A    between atoms: _411  and  _412
REMARK  172  A    between atoms: _411  and  _414
REMARK  173  A    between atoms: _417  and  _419
REMARK  174  A    between atoms: _419  and  _420
REMARK  175  A    between atoms: _419  and  _422
REMARK  176  A    between atoms: _422  and  _423
REMARK  177  A    between atoms: _425  and  _427
REMARK  178  A    between atoms: _427  and  _428
REMARK  179  A    between atoms: _427  and  _430
REMARK  180  A    between atoms: _430  and  _431
REMARK  181  A    between atoms: _433  and  _435
REMARK  182  A    between atoms: _435  and  _436
REMARK  183  A    between atoms: _435  and  _438
REMARK  184  A    between atoms: _438  and  _439
REMARK  185  A    between atoms: _439  and  _440
REMARK  186  A    between atoms: _445  and  _447
REMARK  187  A    between atoms: _447  and  _448
REMARK  188  A    between atoms: _451  and  _453
REMARK  189  A    between atoms: _453  and  _454
REMARK  190  A    between atoms: _453  and  _456
REMARK  191  A    between atoms: _456  and  _457
REMARK  192  A    between atoms: _457  and  _458
REMARK  193  A    between atoms: _460  and  _462
REMARK  194  A    between atoms: _462  and  _463
REMARK  195  A    between atoms: _462  and  _465
REMARK  196  A    between atoms: _465  and  _466
REMARK  197  A    between atoms: _471  and  _472
REMARK  198  A    between atoms: _474  and  _476
REMARK  199  A    between atoms: _476  and  _477
REMARK  200  A    between atoms: _476  and  _479
REMARK  201  A    between atoms: _479  and  _480
REMARK  202  A    between atoms: _483  and  _485
REMARK  203  A    between atoms: _485  and  _486
REMARK  204  A    between atoms: _485  and  _488
REMARK  205  A    between atoms: _488  and  _489
REMARK  206  A    between atoms: _491  and  _493
REMARK  207  A    between atoms: _493  and  _494
REMARK  208  A    between atoms: _493  and  _496
REMARK  209  A    between atoms: _496  and  _497
REMARK  210  A    between atoms: _500  and  _502
REMARK  211  A    between atoms: _502  and  _503
REMARK  212  A    between atoms: _502  and  _505
REMARK  213  A    between atoms: _505  and  _506
REMARK  214  A    between atoms: _506  and  _507
REMARK  215  A    between atoms: _509  and  _511
REMARK  216  A    between atoms: _511  and  _512
REMARK  217  A    between atoms: _511  and  _514
REMARK  218  A    between atoms: _514  and  _515
REMARK  219  A    between atoms: _520  and  _521
REMARK  220  A    between atoms: _523  and  _525
REMARK  221  A    between atoms: _525  and  _526
REMARK  222  A    between atoms: _525  and  _528
REMARK  223  A    between atoms: _528  and  _529
REMARK  224  A    between atoms: _529  and  _530
REMARK  225  A    between atoms: _530  and  _531
REMARK  226  A    between atoms: _540  and  _542
REMARK  227  A    between atoms: _542  and  _543
REMARK  228  A    between atoms: _542  and  _545
REMARK  229  A    between atoms: _545  and  _546
REMARK  230  A    between atoms: _548  and  _550
REMARK  231  A    between atoms: _550  and  _551
REMARK  232  A    between atoms: _550  and  _553
REMARK  233  A    between atoms: _553  and  _554
REMARK  234  A    between atoms: _559  and  _560
REMARK  235  A    between atoms: _562  and  _564
REMARK  236  A    between atoms: _564  and  _565
REMARK  237  A    between atoms: _568  and  _570
REMARK  238  A    between atoms: _570  and  _571
REMARK  239  A    between atoms: _574  and  _576
REMARK  240  A    between atoms: _576  and  _577
REMARK  241  A    between atoms: _576  and  _579
REMARK  242  A    between atoms: _579  and  _580
REMARK  243  A    between atoms: _580  and  _581
REMARK  244  A    between atoms: _581  and  _582
REMARK  245  A    between atoms: _591  and  _593
REMARK  246  A    between atoms: _593  and  _594
REMARK  247  A    between atoms: _593  and  _596
REMARK  248  A    between atoms: _599  and  _601
REMARK  249  A    between atoms: _601  and  _602
REMARK  250  A    between atoms: _604  and  _606
REMARK  251  A    between atoms: _606  and  _607
REMARK  252  A    between atoms: _606  and  _609
REMARK  253  A    between atoms: _609  and  _610
REMARK  254  A    between atoms: _613  and  _615
REMARK  255  A    between atoms: _615  and  _616
REMARK  256  A    between atoms: _619  and  _621
REMARK  257  A    between atoms: _621  and  _622
REMARK  258  A    between atoms: _621  and  _624
REMARK  259  A    between atoms: _624  and  _625
REMARK  260  A    between atoms: _628  and  _630
REMARK  261  A    between atoms: _630  and  _631
REMARK  262  A    between atoms: _630  and  _633
REMARK  263  A    between atoms: _633  and  _634
REMARK  264  A    between atoms: _639  and  _640
REMARK  265  A    between atoms: _642  and  _644
REMARK  266  A    between atoms: _644  and  _645
REMARK  267  A    between atoms: _644  and  _647
REMARK  268  A    between atoms: _647  and  _648
REMARK  269  A    between atoms: _648  and  _649
REMARK  270  A    between atoms: _651  and  _653
REMARK  271  A    between atoms: _653  and  _654
REMARK  272  A    between atoms: _653  and  _656
REMARK  273  A    between atoms: _656  and  _657
REMARK  274  A    between atoms: _657  and  _658
REMARK  275  A    between atoms: _661  and  _663
REMARK  276  A    between atoms: _663  and  _664
REMARK  277  A    between atoms: _663  and  _666
REMARK  278  A    between atoms: _666  and  _667
REMARK  279  A    between atoms: _673  and  _675
REMARK  280  A    between atoms: _675  and  _676
REMARK  281  A    between atoms: _675  and  _678
REMARK  282  A    between atoms: _678  and  _679
REMARK  283  A    between atoms: _684  and  _686
REMARK  284  A    between atoms: _686  and  _687
REMARK  285  A    between atoms: _686  and  _689
REMARK  286  A    between atoms: _689  and  _690
REMARK  287  A    between atoms: _700  and  _702
REMARK  288  A    between atoms: _702  and  _703
REMARK  289  A    between atoms: _702  and  _705
REMARK  290  A    between atoms: _708  and  _710
REMARK  291  A    between atoms: _710  and  _711
REMARK  292  A    between atoms: _710  and  _713
REMARK  293  A    between atoms: _713  and  _714
REMARK  294  A    between atoms: _717  and  _719
REMARK  295  A    between atoms: _719  and  _720
REMARK  296  A    between atoms: _719  and  _722
REMARK  297  A    between atoms: _722  and  _723
REMARK  298  A    between atoms: _723  and  _724
REMARK  299  A    between atoms: _726  and  _728
REMARK  300  A    between atoms: _728  and  _729
REMARK  301  A    between atoms: _728  and  _731
REMARK  302  A    between atoms: _731  and  _732
REMARK  303  A    between atoms: _735  and  _737
REMARK  304  A    between atoms: _737  and  _738
REMARK  305  A    between atoms: _737  and  _740
REMARK  306  A    between atoms: _740  and  _741
REMARK  307  A    between atoms: _744  and  _746
REMARK  308  A    between atoms: _746  and  _747
REMARK  309  A    between atoms: _746  and  _749
REMARK  310  A    between atoms: _749  and  _750
REMARK  311  A    between atoms: _753  and  _755
REMARK  312  A    between atoms: _755  and  _756
REMARK  313  A    between atoms: _755  and  _758
REMARK  314  A    between atoms: _758  and  _759
REMARK  315  A    between atoms: _762  and  _764
REMARK  316  A    between atoms: _764  and  _765
REMARK  317  A    between atoms: _767  and  _769
REMARK  318  A    between atoms: _769  and  _770
REMARK  319  A    between atoms: _769  and  _772
REMARK  320  A    between atoms: _772  and  _773
REMARK  321  A    between atoms: _775  and  _777
REMARK  322  A    between atoms: _777  and  _778
REMARK  323  A    between atoms: _777  and  _780
REMARK  324  A    between atoms: _780  and  _781
REMARK  325  A    between atoms: _791  and  _793
REMARK  326  A    between atoms: _793  and  _794
REMARK  327  A    between atoms: _793  and  _796
REMARK  328  A    between atoms: _796  and  _797
REMARK  329  A    between atoms: _799  and  _801
REMARK  330  A    between atoms: _801  and  _802
REMARK  331  A    between atoms: _801  and  _804
REMARK  332  A    between atoms: _804  and  _805
REMARK  333  A    between atoms: _808  and  _810
REMARK  334  A    between atoms: _810  and  _811
REMARK  335  A    between atoms: _814  and  _816
REMARK  336  A    between atoms: _816  and  _817
REMARK  337  A    between atoms: _816  and  _819
REMARK  338  A    between atoms: _819  and  _820
REMARK  339  A    between atoms: _822  and  _824
REMARK  340  A    between atoms: _824  and  _825
REMARK  341  A    between atoms: _824  and  _827
REMARK  342  A    between atoms: _827  and  _828
REMARK  343  A    between atoms: _828  and  _829
REMARK  344  A    between atoms: _832  and  _834
REMARK  345  A    between atoms: _834  and  _835
REMARK  346  A    between atoms: _834  and  _837
REMARK  347  A    between atoms: _837  and  _838
REMARK  348  A    between atoms: _840  and  _842
REMARK  349  A    between atoms: _842  and  _843
REMARK  350  A    between atoms: _842  and  _845
REMARK  351  A    between atoms: _845  and  _846
REMARK  352  A    between atoms: _846  and  _847
REMARK  353  A    between atoms: _852  and  _854
REMARK  354  A    between atoms: _854  and  _855
REMARK  355  A    between atoms: _854  and  _857
REMARK  356  A    between atoms: _857  and  _858
REMARK  357  A    between atoms: _858  and  _859
REMARK  358  A    between atoms: _864  and  _866
REMARK  359  A    between atoms: _866  and  _867
REMARK  360  A    between atoms: _866  and  _869
REMARK  361  A    between atoms: _869  and  _870
REMARK  362  A    between atoms: _873  and  _875
REMARK  363  A    between atoms: _875  and  _876
REMARK  364  A    between atoms: _875  and  _878
REMARK  365  A    between atoms: _878  and  _879
REMARK  366  A    between atoms: _882  and  _884
REMARK  367  A    between atoms: _884  and  _885
REMARK  368  A    between atoms: _884  and  _887
REMARK  369  A    between atoms: _887  and  _888
REMARK  370  A    between atoms: _895  and  _896
REMARK  371  A    between atoms: _901  and  _903
REMARK  372  A    between atoms: _903  and  _904
REMARK  373  A    between atoms: _903  and  _906
REMARK  374  A    between atoms: _906  and  _907
REMARK  375  A    between atoms: _912  and  _913
REMARK  376  A    between atoms: _915  and  _917
REMARK  377  A    between atoms: _917  and  _918
REMARK  378  A    between atoms: _917  and  _920
REMARK  379  A    between atoms: _920  and  _921
REMARK  380  A    between atoms: _926  and  _928
REMARK  381  A    between atoms: _928  and  _929
REMARK  382  A    between atoms: _928  and  _931
REMARK  383  A    between atoms: _931  and  _932
REMARK  384  A    between atoms: _938  and  _940
REMARK  385  A    between atoms: _940  and  _941
REMARK  386  A    between atoms: _940  and  _943
REMARK  387  A    between atoms: _943  and  _944
REMARK  388  A    between atoms: _947  and  _949
REMARK  389  A    between atoms: _949  and  _950
REMARK  390  A    between atoms: _949  and  _952
REMARK  391  A    between atoms: _952  and  _953
REMARK  392  A    between atoms: _958  and  _960
REMARK  393  A    between atoms: _960  and  _961
REMARK  394  A    between atoms: _960  and  _963
REMARK  395  A    between atoms: _963  and  _964
REMARK  396  A    between atoms: _970  and  _972
REMARK  397  A    between atoms: _972  and  _973
REMARK  398  A    between atoms: _972  and  _975
REMARK  399  A    between atoms: _975  and  _976
REMARK  400  A    between atoms: _976  and  _977
REMARK  401  A    between atoms: _979  and  _981
REMARK  402  A    between atoms: _981  and  _982
REMARK  403  A    between atoms: _981  and  _984
REMARK  404  A    between atoms: _984  and  _985
REMARK  405  A    between atoms: _988  and  _990
REMARK  406  A    between atoms: _990  and  _991
REMARK  407  A    between atoms: _990  and  _993
REMARK  408  A    between atoms: _993  and  _994
REMARK  409  A    between atoms: _999  and  _1001
REMARK  410  A    between atoms: _1001  and  _1002
REMARK  411  A    between atoms: _1001  and  _1004
REMARK  412  A    between atoms: _1004  and  _1005
REMARK  413  A    between atoms: _1010  and  _1011
REMARK                            x       y       z     vdW  Elec       q    Type
REMARK                         _______ _______ _______ _____ _____    ______ ____
ROOT
ATOM      1  CB  PHE A   1     -23.159  -3.127  24.472  0.00  0.00    +0.051 C 
ENDROOT
BRANCH   1   2
ATOM      2  CG  PHE A   1     -22.879  -4.543  24.881  0.00  0.00    -0.020 A 
ATOM      3  CD2 PHE A   1     -21.921  -4.825  25.850  0.00  0.00    -0.004 A 
ATOM      4  CE2 PHE A   1     -21.661  -6.131  26.229  0.00  0.00    -0.000 A 
ATOM      5  CZ  PHE A   1     -22.363  -7.175  25.641  0.00  0.00    -0.000 A 
ATOM      6  CE1 PHE A   1     -23.322  -6.909  24.674  0.00  0.00    -0.000 A 
ATOM      7  CD1 PHE A   1     -23.575  -5.596  24.298  0.00  0.00    -0.004 A 
ENDBRANCH   1   2
BRANCH   1   8
ATOM      8  CA  PHE A   1     -23.869  -2.302  25.555  0.00  0.00    +0.137 C 
BRANCH   8   9
ATOM      9  N   PHE A   1     -25.104  -2.967  26.014  0.00  0.00    -0.239 NA
ATOM     10  H   PHE A   1     -25.144  -3.288  27.002  0.00  0.00    +0.142 HD
ENDBRANCH   8   9
BRANCH   8  11
ATOM     11  C   PHE A   1     -24.031  -0.842  25.111  0.00  0.00    +0.224 C 
ATOM     12  O   PHE A   1     -23.098  -0.244  24.569  0.00  0.00    -0.287 OA
ENDBRANCH   8  11
ENDBRANCH   1   8
TORSDOF 4
REMARK  Name = ../refined-set-2016/3drg/3drg_pocket.pdb
REMARK  413 active torsions:
REMARK  status: ('A' for Active; 'I' for Inactive)
REMARK    1  A    between atoms: _1  and  _3
REMARK    2  A    between atoms: _3  and  _4
REMARK    3  A    between atoms: _3  and  _6
REMARK    4  A    between atoms: _6  and  _7
REMARK    5  A    between atoms: _12  and  _13
REMARK    6  A    between atoms: _15  and  _17
REMARK    7  A    between atoms: _17  and  _18
REMARK    8  A    between atoms: _17  and  _20
REMARK    9  A    between atoms: _20  and  _21
REMARK   10  A    between atoms: _21  and  _22
REMARK   11  A    between atoms: _27  and  _29
REMARK   12  A    between atoms: _29  and  _30
REMARK   13  A    between atoms: _29  and  _32
REMARK   14  A    between atoms: _32  and  _33
REMARK   15  A    between atoms: _35  and  _37
REMARK   16  A    between atoms: _37  and  _38
REMARK   17  A    between atoms: _37  and  _40
REMARK   18  A    between atoms: _40  and  _41
REMARK   19  A    between atoms: _44  and  _46
REMARK   20  A    between atoms: _46  and  _47
REMARK   21  A    between atoms: _46  and  _49
REMARK   22  A    between atoms: _49  and  _50
REMARK   23  A    between atoms: _52  and  _54
REMARK   24  A    between atoms: _54  and  _55
REMARK   25  A    between atoms: _54  and  _57
REMARK   26  A    between atoms: _57  and  _58
REMARK   27  A    between atoms: _61  and  _63
REMARK   28  A    between atoms: _63  and  _64
REMARK   29  A    between atoms: _63  and  _66
REMARK   30  A    between atoms: _66  and  _67
REMARK   31  A    between atoms: _69  and  _71
REMARK   32  A    between atoms: _71  and  _72
REMARK   33  A    between atoms: _74  and  _76
REMARK   34  A    between atoms: _76  and  _77
REMARK   35  A    between atoms: _76  and  _79
REMARK   36  A    between atoms: _79  and  _80
REMARK   37  A    between atoms: _82  and  _84
REMARK   38  A    between atoms: _84  and  _85
REMARK   39  A    between atoms: _84  and  _87
REMARK   40  A    between atoms: _87  and  _88
REMARK   41  A    between atoms: _93  and  _95
REMARK   42  A    between atoms: _95  and  _96
REMARK   43  A    between atoms: _95  and  _98
REMARK   44  A    between atoms: _98  and  _99
REMARK   45  A    between atoms: _102  and  _104
REMARK   46  A    between atoms: _104  and  _105
REMARK   47  A    between atoms: _108  and  _110
REMARK   48  A    between atoms: _110  and  _111
REMARK   49  A    between atoms: _110  and  _113
REMARK   50  A    between atoms: _113  and  _114
REMARK   51  A    between atoms: _117  and  _119
REMARK   52  A    between atoms: _119  and  _120
REMARK   53  A    between atoms: _119  and  _122
REMARK   54  A    between atoms: _122  and  _123
REMARK   55  A    between atoms: _129  and  _131
REMARK   56  A    between atoms: _131  and  _132
REMARK   57  A    between atoms: _135  and  _137
REMARK   58  A    between atoms: _137  and  _138
REMARK   59  A    between atoms: _137  and  _140
REMARK   60  A    between atoms: _140  and  _141
REMARK   61  A    between atoms: _144  and  _146
REMARK   62  A    between atoms: _146  and  _147
REMARK   63  A    between atoms: _146  and  _149
REMARK   64  A    between atoms: _149  and  _150
REMARK   65  A    between atoms: _152  and  _154
REMARK   66  A    between atoms: _154  and  _155
REMARK   67  A    between atoms: _157  and  _159
REMARK   68  A    between atoms: _159  and  _160
REMARK   69  A    between atoms: _162  and  _164
REMARK   70  A    between atoms: _164  and  _165
REMARK   71  A    between atoms: _164  and  _167
REMARK   72  A    between atoms: _167  and  _168
REMARK   73  A    between atoms: _168  and  _169
REMARK   74  A    between atoms: _174  and  _176
REMARK   75  A    between atoms: _176  and  _177
REMARK   76  A    between atoms: _176  and  _179
REMARK   77  A    between atoms: _179  and  _180
REMARK   78  A    between atoms: _183  and  _185
REMARK   79  A    between atoms: _185  and  _186
REMARK   80  A    between atoms: _188  and  _190
REMARK   81  A    between atoms: _190  and  _191
REMARK   82  A    between atoms: _190  and  _193
REMARK   83  A    between atoms: _193  and  _194
REMARK   84  A    between atoms: _197  and  _199
REMARK   85  A    between atoms: _199  and  _200
REMARK   86  A    between atoms: _199  and  _202
REMARK   87  A    between atoms: _202  and  _203
REMARK   88  A    between atoms: _209  and  _211
REMARK   89  A    between atoms: _211  and  _212
REMARK   90  A    between atoms: _211  and  _214
REMARK   91  A    between atoms: _214  and  _215
REMARK   92  A    between atoms: _218  and  _220
REMARK   93  A    between atoms: _220  and  _221
REMARK   94  A    between atoms: _220  and  _223
REMARK   95  A    between atoms: _223  and  _224
REMARK   96  A    between atoms: _230  and  _232
REMARK   97  A    between atoms: _232  and  _233
REMARK   98  A    between atoms: _232  and  _235
REMARK   99  A    between atoms: _235  and  _236
REMARK  100  A    between atoms: _242  and  _244
REMARK  101  A    between atoms: _244  and  _245
REMARK  102  A    between atoms: _244  and  _247
REMARK  103  A    between atoms: _247  and  _248
REMARK  104  A    between atoms: _251  and  _253
REMARK  105  A    between atoms: _253  and  _254
REMARK  106  A    between atoms: _253  and  _256
REMARK  107  A    between atoms: _256  and  _257
REMARK  108  A    between atoms: _260  and  _262
REMARK  109  A    between atoms: _262  and  _263
REMARK  110  A    between atoms: _262  and  _265
REMARK  111  A    between atoms: _265  and  _266
REMARK  112  A    between atoms: _266  and  _267
REMARK  113  A    between atoms: _267  and  _268
REMARK  114  A    between atoms: _277  and  _279
REMARK  115  A    between atoms: _279  and  _280
REMARK  116  A    between atoms: _279  and  _282
REMARK  117  A    between atoms: _282  and  _283
REMARK  118  A    between atoms: _286  and  _288
REMARK  119  A    between atoms: _288  and  _289
REMARK  120  A    between atoms: _288  and  _291
REMARK  121  A    between atoms: _291  and  _292
REMARK  122  A    between atoms: _292  and  _293
REMARK  123  A    between atoms: _298  and  _300
REMARK  124  A    between atoms: _300  and  _301
REMARK  125  A    between atoms: _300  and  _303
REMARK  126  A    between atoms: _303  and  _304
REMARK  127  A    between atoms: _306  and  _308
REMARK  128  A    between atoms: _308  and  _309
REMARK  129  A    between atoms: _311  and  _313
REMARK  130  A    between atoms: _313  and  _314
REMARK  131  A    between atoms: _313  and  _316
REMARK  132  A    between atoms: _316  and  _317
REMARK  133  A    between atoms: _322  and  _324
REMARK  134  A    between atoms: _324  and  _325
REMARK  135  A    between atoms: _327  and  _329
REMARK  136  A    between atoms: _329  and  _330
REMARK  137  A    between atoms: _329  and  _332
REMARK  138  A    between atoms: _332  and  _333
REMARK  139  A    between atoms: _339  and  _341
REMARK  140  A    between atoms: _341  and  _342
REMARK  141  A    between atoms: _341  and  _344
REMARK  142  A    between atoms: _344  and  _345
REMARK  143  A    between atoms: _348  and  _350
REMARK  144  A    between atoms: _350  and  _351
REMARK  145  A    between atoms: _350  and  _353
REMARK  146  A    between atoms: _353  and  _354
REMARK  147  A    between atoms: _354  and  _355
REMARK  148  A    between atoms: _358  and  _360
REMARK  149  A    between atoms: _360  and  _361
REMARK  150  A    between atoms: _360  and  _363
REMARK  151  A    between atoms: _363  and  _364
REMARK  152  A    between atoms: _367  and  _369
REMARK  153  A    between atoms: _369  and  _370
REMARK  154  A    between atoms: _369  and  _372
REMARK  155  A    between atoms: _375  and  _377
REMARK  156  A    between atoms: _377  and  _378
REMARK  157  A    between atoms: _377  and  _380
REMARK  158  A    between atoms: _380  and  _381
REMARK  159  A    between atoms: _384  and  _386
REMARK  160  A    between atoms: _386  and  _387
REMARK  161  A    between atoms: _386  and  _389
REMARK  162  A    between atoms: _389  and  _390
REMARK  163  A    between atoms: _395  and  _397
REMARK  164  A    between atoms: _397  and  _398
REMARK  165  A    between atoms: _400  and  _402
REMARK  166  A    between atoms: _402  and  _403
REMARK  167  A    between atoms: _402  and  _405
REMARK  168  A    between atoms: _405  and  _406
REMARK  169  A    between atoms: _406  and  _407
REMARK  170  A    between atoms: _409  and  _411
REMARK  171  A    between atoms: _411  and  _412
REMARK  172  A    between atoms: _411  and  _414
REMARK  173  A    between atoms: _417  and  _419
REMARK  174  A    between atoms: _419  and  _420
REMARK  175  A    between atoms: _419  and  _422
REMARK  176  A    between atoms: _422  and  _423
REMARK  177  A    between atoms: _425  and  _427
REMARK  178  A    between atoms: _427  and  _428
REMARK  179  A    between atoms: _427  and  _430
REMARK  180  A    between atoms: _430  and  _431
REMARK  181  A    between atoms: _433  and  _435
REMARK  182  A    between atoms: _435  and  _436
REMARK  183  A    between atoms: _435  and  _438
REMARK  184  A    between atoms: _438  and  _439
REMARK  185  A    between atoms: _439  and  _440
REMARK  186  A    between atoms: _445  and  _447
REMARK  187  A    between atoms: _447  and  _448
REMARK  188  A    between atoms: _451  and  _453
REMARK  189  A    between atoms: _453  and  _454
REMARK  190  A    between atoms: _453  and  _456
REMARK  191  A    between atoms: _456  and  _457
REMARK  192  A    between atoms: _457  and  _458
REMARK  193  A    between atoms: _460  and  _462
REMARK  194  A    between atoms: _462  and  _463
REMARK  195  A    between atoms: _462  and  _465
REMARK  196  A    between atoms: _465  and  _466
REMARK  197  A    between atoms: _471  and  _472
REMARK  198  A    between atoms: _474  and  _476
REMARK  199  A    between atoms: _476  and  _477
REMARK  200  A    between atoms: _476  and  _479
REMARK  201  A    between atoms: _479  and  _480
REMARK  202  A    between atoms: _483  and  _485
REMARK  203  A    between atoms: _485  and  _486
REMARK  204  A    between atoms: _485  and  _488
REMARK  205  A    between atoms: _488  and  _489
REMARK  206  A    between atoms: _491  and  _493
REMARK  207  A    between atoms: _493  and  _494
REMARK  208  A    between atoms: _493  and  _496
REMARK  209  A    between atoms: _496  and  _497
REMARK  210  A    between atoms: _500  and  _502
REMARK  211  A    between atoms: _502  and  _503
REMARK  212  A    between atoms: _502  and  _505
REMARK  213  A    between atoms: _505  and  _506
REMARK  214  A    between atoms: _506  and  _507
REMARK  215  A    between atoms: _509  and  _511
REMARK  216  A    between atoms: _511  and  _512
REMARK  217  A    between atoms: _511  and  _514
REMARK  218  A    between atoms: _514  and  _515
REMARK  219  A    between atoms: _520  and  _521
REMARK  220  A    between atoms: _523  and  _525
REMARK  221  A    between atoms: _525  and  _526
REMARK  222  A    between atoms: _525  and  _528
REMARK  223  A    between atoms: _528  and  _529
REMARK  224  A    between atoms: _529  and  _530
REMARK  225  A    between atoms: _530  and  _531
REMARK  226  A    between atoms: _540  and  _542
REMARK  227  A    between atoms: _542  and  _543
REMARK  228  A    between atoms: _542  and  _545
REMARK  229  A    between atoms: _545  and  _546
REMARK  230  A    between atoms: _548  and  _550
REMARK  231  A    between atoms: _550  and  _551
REMARK  232  A    between atoms: _550  and  _553
REMARK  233  A    between atoms: _553  and  _554
REMARK  234  A    between atoms: _559  and  _560
REMARK  235  A    between atoms: _562  and  _564
REMARK  236  A    between atoms: _564  and  _565
REMARK  237  A    between atoms: _568  and  _570
REMARK  238  A    between atoms: _570  and  _571
REMARK  239  A    between atoms: _574  and  _576
REMARK  240  A    between atoms: _576  and  _577
REMARK  241  A    between atoms: _576  and  _579
REMARK  242  A    between atoms: _579  and  _580
REMARK  243  A    between atoms: _580  and  _581
REMARK  244  A    between atoms: _581  and  _582
REMARK  245  A    between atoms: _591  and  _593
REMARK  246  A    between atoms: _593  and  _594
REMARK  247  A    between atoms: _593  and  _596
REMARK  248  A    between atoms: _599  and  _601
REMARK  249  A    between atoms: _601  and  _602
REMARK  250  A    between atoms: _604  and  _606
REMARK  251  A    between atoms: _606  and  _607
REMARK  252  A    between atoms: _606  and  _609
REMARK  253  A    between atoms: _609  and  _610
REMARK  254  A    between atoms: _613  and  _615
REMARK  255  A    between atoms: _615  and  _616
REMARK  256  A    between atoms: _619  and  _621
REMARK  257  A    between atoms: _621  and  _622
REMARK  258  A    between atoms: _621  and  _624
REMARK  259  A    between atoms: _624  and  _625
REMARK  260  A    between atoms: _628  and  _630
REMARK  261  A    between atoms: _630  and  _631
REMARK  262  A    between atoms: _630  and  _633
REMARK  263  A    between atoms: _633  and  _634
REMARK  264  A    between atoms: _639  and  _640
REMARK  265  A    between atoms: _642  and  _644
REMARK  266  A    between atoms: _644  and  _645
REMARK  267  A    between atoms: _644  and  _647
REMARK  268  A    between atoms: _647  and  _648
REMARK  269  A    between atoms: _648  and  _649
REMARK  270  A    between atoms: _651  and  _653
REMARK  271  A    between atoms: _653  and  _654
REMARK  272  A    between atoms: _653  and  _656
REMARK  273  A    between atoms: _656  and  _657
REMARK  274  A    between atoms: _657  and  _658
REMARK  275  A    between atoms: _661  and  _663
REMARK  276  A    between atoms: _663  and  _664
REMARK  277  A    between atoms: _663  and  _666
REMARK  278  A    between atoms: _666  and  _667
REMARK  279  A    between atoms: _673  and  _675
REMARK  280  A    between atoms: _675  and  _676
REMARK  281  A    between atoms: _675  and  _678
REMARK  282  A    between atoms: _678  and  _679
REMARK  283  A    between atoms: _684  and  _686
REMARK  284  A    between atoms: _686  and  _687
REMARK  285  A    between atoms: _686  and  _689
REMARK  286  A    between atoms: _689  and  _690
REMARK  287  A    between atoms: _700  and  _702
REMARK  288  A    between atoms: _702  and  _703
REMARK  289  A    between atoms: _702  and  _705
REMARK  290  A    between atoms: _708  and  _710
REMARK  291  A    between atoms: _710  and  _711
REMARK  292  A    between atoms: _710  and  _713
REMARK  293  A    between atoms: _713  and  _714
REMARK  294  A    between atoms: _717  and  _719
REMARK  295  A    between atoms: _719  and  _720
REMARK  296  A    between atoms: _719  and  _722
REMARK  297  A    between atoms: _722  and  _723
REMARK  298  A    between atoms: _723  and  _724
REMARK  299  A    between atoms: _726  and  _728
REMARK  300  A    between atoms: _728  and  _729
REMARK  301  A    between atoms: _728  and  _731
REMARK  302  A    between atoms: _731  and  _732
REMARK  303  A    between atoms: _735  and  _737
REMARK  304  A    between atoms: _737  and  _738
REMARK  305  A    between atoms: _737  and  _740
REMARK  306  A    between atoms: _740  and  _741
REMARK  307  A    between atoms: _744  and  _746
REMARK  308  A    between atoms: _746  and  _747
REMARK  309  A    between atoms: _746  and  _749
REMARK  310  A    between atoms: _749  and  _750
REMARK  311  A    between atoms: _753  and  _755
REMARK  312  A    between atoms: _755  and  _756
REMARK  313  A    between atoms: _755  and  _758
REMARK  314  A    between atoms: _758  and  _759
REMARK  315  A    between atoms: _762  and  _764
REMARK  316  A    between atoms: _764  and  _765
REMARK  317  A    between atoms: _767  and  _769
REMARK  318  A    between atoms: _769  and  _770
REMARK  319  A    between atoms: _769  and  _772
REMARK  320  A    between atoms: _772  and  _773
REMARK  321  A    between atoms: _775  and  _777
REMARK  322  A    between atoms: _777  and  _778
REMARK  323  A    between atoms: _777  and  _780
REMARK  324  A    between atoms: _780  and  _781
REMARK  325  A    between atoms: _791  and  _793
REMARK  326  A    between atoms: _793  and  _794
REMARK  327  A    between atoms: _793  and  _796
REMARK  328  A    between atoms: _796  and  _797
REMARK  329  A    between atoms: _799  and  _801
REMARK  330  A    between atoms: _801  and  _802
REMARK  331  A    between atoms: _801  and  _804
REMARK  332  A    between atoms: _804  and  _805
REMARK  333  A    between atoms: _808  and  _810
REMARK  334  A    between atoms: _810  and  _811
REMARK  335  A    between atoms: _814  and  _816
REMARK  336  A    between atoms: _816  and  _817
REMARK  337  A    between atoms: _816  and  _819
REMARK  338  A    between atoms: _819  and  _820
REMARK  339  A    between atoms: _822  and  _824
REMARK  340  A    between atoms: _824  and  _825
REMARK  341  A    between atoms: _824  and  _827
REMARK  342  A    between atoms: _827  and  _828
REMARK  343  A    between atoms: _828  and  _829
REMARK  344  A    between atoms: _832  and  _834
REMARK  345  A    between atoms: _834  and  _835
REMARK  346  A    between atoms: _834  and  _837
REMARK  347  A    between atoms: _837  and  _838
REMARK  348  A    between atoms: _840  and  _842
REMARK  349  A    between atoms: _842  and  _843
REMARK  350  A    between atoms: _842  and  _845
REMARK  351  A    between atoms: _845  and  _846
REMARK  352  A    between atoms: _846  and  _847
REMARK  353  A    between atoms: _852  and  _854
REMARK  354  A    between atoms: _854  and  _855
REMARK  355  A    between atoms: _854  and  _857
REMARK  356  A    between atoms: _857  and  _858
REMARK  357  A    between atoms: _858  and  _859
REMARK  358  A    between atoms: _864  and  _866
REMARK  359  A    between atoms: _866  and  _867
REMARK  360  A    between atoms: _866  and  _869
REMARK  361  A    between atoms: _869  and  _870
REMARK  362  A    between atoms: _873  and  _875
REMARK  363  A    between atoms: _875  and  _876
REMARK  364  A    between atoms: _875  and  _878
REMARK  365  A    between atoms: _878  and  _879
REMARK  366  A    between atoms: _882  and  _884
REMARK  367  A    between atoms: _884  and  _885
REMARK  368  A    between atoms: _884  and  _887
REMARK  369  A    between atoms: _887  and  _888
REMARK  370  A    between atoms: _895  and  _896
REMARK  371  A    between atoms: _901  and  _903
REMARK  372  A    between atoms: _903  and  _904
REMARK  373  A    between atoms: _903  and  _906
REMARK  374  A    between atoms: _906  and  _907
REMARK  375  A    between atoms: _912  and  _913
REMARK  376  A    between atoms: _915  and  _917
REMARK  377  A    between atoms: _917  and  _918
REMARK  378  A    between atoms: _917  and  _920
REMARK  379  A    between atoms: _920  and  _921
REMARK  380  A    between atoms: _926  and  _928
REMARK  381  A    between atoms: _928  and  _929
REMARK  382  A    between atoms: _928  and  _931
REMARK  383  A    between atoms: _931  and  _932
REMARK  384  A    between atoms: _938  and  _940
REMARK  385  A    between atoms: _940  and  _941
REMARK  386  A    between atoms: _940  and  _943
REMARK  387  A    between atoms: _943  and  _944
REMARK  388  A    between atoms: _947  and  _949
REMARK  389  A    between atoms: _949  and  _950
REMARK  390  A    between atoms: _949  and  _952
REMARK  391  A    between atoms: _952  and  _953
REMARK  392  A    between atoms: _958  and  _960
REMARK  393  A    between atoms: _960  and  _961
REMARK  394  A    between atoms: _960  and  _963
REMARK  395  A    between atoms: _963  and  _964
REMARK  396  A    between atoms: _970  and  _972
REMARK  397  A    between atoms: _972  and  _973
REMARK  398  A    between atoms: _972  and  _975
REMARK  399  A    between atoms: _975  and  _976
REMARK  400  A    between atoms: _976  and  _977
REMARK  401  A    between atoms: _979  and  _981
REMARK  402  A    between atoms: _981  and  _982
REMARK  403  A    between atoms: _981  and  _984
REMARK  404  A    between atoms: _984  and  _985
REMARK  405  A    between atoms: _988  and  _990
REMARK  406  A    between atoms: _990  and  _991
REMARK  407  A    between atoms: _990  and  _993
REMARK  408  A    between atoms: _993  and  _994
REMARK  409  A    between atoms: _999  and  _1001
REMARK  410  A    between atoms: _1001  and  _1002
REMARK  411  A    between atoms: _1001  and  _1004
REMARK  412  A    between atoms: _1004  and  _1005
REMARK  413  A    between atoms: _1010  and  _1011
REMARK                            x       y       z     vdW  Elec       q    Type
REMARK                         _______ _______ _______ _____ _____    ______ ____
ROOT
ATOM      1  CB  PHE A   1     -23.137   5.324  25.559  0.00  0.00    +0.051 C 
ENDROOT
BRANCH   1   2
ATOM      2  CG  PHE A   1     -21.978   4.872  24.710  0.00  0.00    -0.020 A 
ATOM      3  CD2 PHE A   1     -20.843   4.308  25.290  0.00  0.00    -0.004 A 
ATOM      4  CE2 PHE A   1     -19.765   3.900  24.505  0.00  0.00    -0.000 A 
ATOM      5  CZ  PHE A   1     -19.810   4.069  23.124  0.00  0.00    -0.000 A 
ATOM      6  CE1 PHE A   1     -20.934   4.637  22.536  0.00  0.00    -0.000 A 
ATOM      7  CD1 PHE A   1     -22.007   5.043  23.331  0.00  0.00    -0.004 A 
ENDBRANCH   1   2
BRANCH   1   8
ATOM      8  CA  PHE A   1     -23.775   4.210  26.400  0.00  0.00    +0.137 C 
BRANCH   8   9
ATOM      9  N   PHE A   1     -24.401   3.205  25.543  0.00  0.00    -0.239 NA
ATOM     10  H   PHE A   1     -24.440   3.377  24.518  0.00  0.00    +0.142 HD
ENDBRANCH   8   9
BRANCH   8  11
ATOM     11  C   PHE A   1     -24.756   4.828  27.389  0.00  0.00    +0.224 C 
ATOM     12  O   PHE A   1     -25.887   5.168  27.033  0.00  0.00    -0.287 OA
ENDBRANCH   8  11
ENDBRANCH   1   8
TORSDOF 4
REMARK  Name = ../refined-set-2016/3drg/3drg_pocket.pdb
REMARK  413 active torsions:
REMARK  status: ('A' for Active; 'I' for Inactive)
REMARK    1  A    between atoms: _1  and  _3
REMARK    2  A    between atoms: _3  and  _4
REMARK    3  A    between atoms: _3  and  _6
REMARK    4  A    between atoms: _6  and  _7
REMARK    5  A    between atoms: _12  and  _13
REMARK    6  A    between atoms: _15  and  _17
REMARK    7  A    between atoms: _17  and  _18
REMARK    8  A    between atoms: _17  and  _20
REMARK    9  A    between atoms: _20  and  _21
REMARK   10  A    between atoms: _21  and  _22
REMARK   11  A    between atoms: _27  and  _29
REMARK   12  A    between atoms: _29  and  _30
REMARK   13  A    between atoms: _29  and  _32
REMARK   14  A    between atoms: _32  and  _33
REMARK   15  A    between atoms: _35  and  _37
REMARK   16  A    between atoms: _37  and  _38
REMARK   17  A    between atoms: _37  and  _40
REMARK   18  A    between atoms: _40  and  _41
REMARK   19  A    between atoms: _44  and  _46
REMARK   20  A    between atoms: _46  and  _47
REMARK   21  A    between atoms: _46  and  _49
REMARK   22  A    between atoms: _49  and  _50
REMARK   23  A    between atoms: _52  and  _54
REMARK   24  A    between atoms: _54  and  _55
REMARK   25  A    between atoms: _54  and  _57
REMARK   26  A    between atoms: _57  and  _58
REMARK   27  A    between atoms: _61  and  _63
REMARK   28  A    between atoms: _63  and  _64
REMARK   29  A    between atoms: _63  and  _66
REMARK   30  A    between atoms: _66  and  _67
REMARK   31  A    between atoms: _69  and  _71
REMARK   32  A    between atoms: _71  and  _72
REMARK   33  A    between atoms: _74  and  _76
REMARK   34  A    between atoms: _76  and  _77
REMARK   35  A    between atoms: _76  and  _79
REMARK   36  A    between atoms: _79  and  _80
REMARK   37  A    between atoms: _82  and  _84
REMARK   38  A    between atoms: _84  and  _85
REMARK   39  A    between atoms: _84  and  _87
REMARK   40  A    between atoms: _87  and  _88
REMARK   41  A    between atoms: _93  and  _95
REMARK   42  A    between atoms: _95  and  _96
REMARK   43  A    between atoms: _95  and  _98
REMARK   44  A    between atoms: _98  and  _99
REMARK   45  A    between atoms: _102  and  _104
REMARK   46  A    between atoms: _104  and  _105
REMARK   47  A    between atoms: _108  and  _110
REMARK   48  A    between atoms: _110  and  _111
REMARK   49  A    between atoms: _110  and  _113
REMARK   50  A    between atoms: _113  and  _114
REMARK   51  A    between atoms: _117  and  _119
REMARK   52  A    between atoms: _119  and  _120
REMARK   53  A    between atoms: _119  and  _122
REMARK   54  A    between atoms: _122  and  _123
REMARK   55  A    between atoms: _129  and  _131
REMARK   56  A    between atoms: _131  and  _132
REMARK   57  A    between atoms: _135  and  _137
REMARK   58  A    between atoms: _137  and  _138
REMARK   59  A    between atoms: _137  and  _140
REMARK   60  A    between atoms: _140  and  _141
REMARK   61  A    between atoms: _144  and  _146
REMARK   62  A    between atoms: _146  and  _147
REMARK   63  A    between atoms: _146  and  _149
REMARK   64  A    between atoms: _149  and  _150
REMARK   65  A    between atoms: _152  and  _154
REMARK   66  A    between atoms: _154  and  _155
REMARK   67  A    between atoms: _157  and  _159
REMARK   68  A    between atoms: _159  and  _160
REMARK   69  A    between atoms: _162  and  _164
REMARK   70  A    between atoms: _164  and  _165
REMARK   71  A    between atoms: _164  and  _167
REMARK   72  A    between atoms: _167  and  _168
REMARK   73  A    between atoms: _168  and  _169
REMARK   74  A    between atoms: _174  and  _176
REMARK   75  A    between atoms: _176  and  _177
REMARK   76  A    between atoms: _176  and  _179
REMARK   77  A    between atoms: _179  and  _180
REMARK   78  A    between atoms: _183  and  _185
REMARK   79  A    between atoms: _185  and  _186
REMARK   80  A    between atoms: _188  and  _190
REMARK   81  A    between atoms: _190  and  _191
REMARK   82  A    between atoms: _190  and  _193
REMARK   83  A    between atoms: _193  and  _194
REMARK   84  A    between atoms: _197  and  _199
REMARK   85  A    between atoms: _199  and  _200
REMARK   86  A    between atoms: _199  and  _202
REMARK   87  A    between atoms: _202  and  _203
REMARK   88  A    between atoms: _209  and  _211
REMARK   89  A    between atoms: _211  and  _212
REMARK   90  A    between atoms: _211  and  _214
REMARK   91  A    between atoms: _214  and  _215
REMARK   92  A    between atoms: _218  and  _220
REMARK   93  A    between atoms: _220  and  _221
REMARK   94  A    between atoms: _220  and  _223
REMARK   95  A    between atoms: _223  and  _224
REMARK   96  A    between atoms: _230  and  _232
REMARK   97  A    between atoms: _232  and  _233
REMARK   98  A    between atoms: _232  and  _235
REMARK   99  A    between atoms: _235  and  _236
REMARK  100  A    between atoms: _242  and  _244
REMARK  101  A    between atoms: _244  and  _245
REMARK  102  A    between atoms: _244  and  _247
REMARK  103  A    between atoms: _247  and  _248
REMARK  104  A    between atoms: _251  and  _253
REMARK  105  A    between atoms: _253  and  _254
REMARK  106  A    between atoms: _253  and  _256
REMARK  107  A    between atoms: _256  and  _257
REMARK  108  A    between atoms: _260  and  _262
REMARK  109  A    between atoms: _262  and  _263
REMARK  110  A    between atoms: _262  and  _265
REMARK  111  A    between atoms: _265  and  _266
REMARK  112  A    between atoms: _266  and  _267
REMARK  113  A    between atoms: _267  and  _268
REMARK  114  A    between atoms: _277  and  _279
REMARK  115  A    between atoms: _279  and  _280
REMARK  116  A    between atoms: _279  and  _282
REMARK  117  A    between atoms: _282  and  _283
REMARK  118  A    between atoms: _286  and  _288
REMARK  119  A    between atoms: _288  and  _289
REMARK  120  A    between atoms: _288  and  _291
REMARK  121  A    between atoms: _291  and  _292
REMARK  122  A    between atoms: _292  and  _293
REMARK  123  A    between atoms: _298  and  _300
REMARK  124  A    between atoms: _300  and  _301
REMARK  125  A    between atoms: _300  and  _303
REMARK  126  A    between atoms: _303  and  _304
REMARK  127  A    between atoms: _306  and  _308
REMARK  128  A    between atoms: _308  and  _309
REMARK  129  A    between atoms: _311  and  _313
REMARK  130  A    between atoms: _313  and  _314
REMARK  131  A    between atoms: _313  and  _316
REMARK  132  A    between atoms: _316  and  _317
REMARK  133  A    between atoms: _322  and  _324
REMARK  134  A    between atoms: _324  and  _325
REMARK  135  A    between atoms: _327  and  _329
REMARK  136  A    between atoms: _329  and  _330
REMARK  137  A    between atoms: _329  and  _332
REMARK  138  A    between atoms: _332  and  _333
REMARK  139  A    between atoms: _339  and  _341
REMARK  140  A    between atoms: _341  and  _342
REMARK  141  A    between atoms: _341  and  _344
REMARK  142  A    between atoms: _344  and  _345
REMARK  143  A    between atoms: _348  and  _350
REMARK  144  A    between atoms: _350  and  _351
REMARK  145  A    between atoms: _350  and  _353
REMARK  146  A    between atoms: _353  and  _354
REMARK  147  A    between atoms: _354  and  _355
REMARK  148  A    between atoms: _358  and  _360
REMARK  149  A    between atoms: _360  and  _361
REMARK  150  A    between atoms: _360  and  _363
REMARK  151  A    between atoms: _363  and  _364
REMARK  152  A    between atoms: _367  and  _369
REMARK  153  A    between atoms: _369  and  _370
REMARK  154  A    between atoms: _369  and  _372
REMARK  155  A    between atoms: _375  and  _377
REMARK  156  A    between atoms: _377  and  _378
REMARK  157  A    between atoms: _377  and  _380
REMARK  158  A    between atoms: _380  and  _381
REMARK  159  A    between atoms: _384  and  _386
REMARK  160  A    between atoms: _386  and  _387
REMARK  161  A    between atoms: _386  and  _389
REMARK  162  A    between atoms: _389  and  _390
REMARK  163  A    between atoms: _395  and  _397
REMARK  164  A    between atoms: _397  and  _398
REMARK  165  A    between atoms: _400  and  _402
REMARK  166  A    between atoms: _402  and  _403
REMARK  167  A    between atoms: _402  and  _405
REMARK  168  A    between atoms: _405  and  _406
REMARK  169  A    between atoms: _406  and  _407
REMARK  170  A    between atoms: _409  and  _411
REMARK  171  A    between atoms: _411  and  _412
REMARK  172  A    between atoms: _411  and  _414
REMARK  173  A    between atoms: _417  and  _419
REMARK  174  A    between atoms: _419  and  _420
REMARK  175  A    between atoms: _419  and  _422
REMARK  176  A    between atoms: _422  and  _423
REMARK  177  A    between atoms: _425  and  _427
REMARK  178  A    between atoms: _427  and  _428
REMARK  179  A    between atoms: _427  and  _430
REMARK  180  A    between atoms: _430  and  _431
REMARK  181  A    between atoms: _433  and  _435
REMARK  182  A    between atoms: _435  and  _436
REMARK  183  A    between atoms: _435  and  _438
REMARK  184  A    between atoms: _438  and  _439
REMARK  185  A    between atoms: _439  and  _440
REMARK  186  A    between atoms: _445  and  _447
REMARK  187  A    between atoms: _447  and  _448
REMARK  188  A    between atoms: _451  and  _453
REMARK  189  A    between atoms: _453  and  _454
REMARK  190  A    between atoms: _453  and  _456
REMARK  191  A    between atoms: _456  and  _457
REMARK  192  A    between atoms: _457  and  _458
REMARK  193  A    between atoms: _460  and  _462
REMARK  194  A    between atoms: _462  and  _463
REMARK  195  A    between atoms: _462  and  _465
REMARK  196  A    between atoms: _465  and  _466
REMARK  197  A    between atoms: _471  and  _472
REMARK  198  A    between atoms: _474  and  _476
REMARK  199  A    between atoms: _476  and  _477
REMARK  200  A    between atoms: _476  and  _479
REMARK  201  A    between atoms: _479  and  _480
REMARK  202  A    between atoms: _483  and  _485
REMARK  203  A    between atoms: _485  and  _486
REMARK  204  A    between atoms: _485  and  _488
REMARK  205  A    between atoms: _488  and  _489
REMARK  206  A    between atoms: _491  and  _493
REMARK  207  A    between atoms: _493  and  _494
REMARK  208  A    between atoms: _493  and  _496
REMARK  209  A    between atoms: _496  and  _497
REMARK  210  A    between atoms: _500  and  _502
REMARK  211  A    between atoms: _502  and  _503
REMARK  212  A    between atoms: _502  and  _505
REMARK  213  A    between atoms: _505  and  _506
REMARK  214  A    between atoms: _506  and  _507
REMARK  215  A    between atoms: _509  and  _511
REMARK  216  A    between atoms: _511  and  _512
REMARK  217  A    between atoms: _511  and  _514
REMARK  218  A    between atoms: _514  and  _515
REMARK  219  A    between atoms: _520  and  _521
REMARK  220  A    between atoms: _523  and  _525
REMARK  221  A    between atoms: _525  and  _526
REMARK  222  A    between atoms: _525  and  _528
REMARK  223  A    between atoms: _528  and  _529
REMARK  224  A    between atoms: _529  and  _530
REMARK  225  A    between atoms: _530  and  _531
REMARK  226  A    between atoms: _540  and  _542
REMARK  227  A    between atoms: _542  and  _543
REMARK  228  A    between atoms: _542  and  _545
REMARK  229  A    between atoms: _545  and  _546
REMARK  230  A    between atoms: _548  and  _550
REMARK  231  A    between atoms: _550  and  _551
REMARK  232  A    between atoms: _550  and  _553
REMARK  233  A    between atoms: _553  and  _554
REMARK  234  A    between atoms: _559  and  _560
REMARK  235  A    between atoms: _562  and  _564
REMARK  236  A    between atoms: _564  and  _565
REMARK  237  A    between atoms: _568  and  _570
REMARK  238  A    between atoms: _570  and  _571
REMARK  239  A    between atoms: _574  and  _576
REMARK  240  A    between atoms: _576  and  _577
REMARK  241  A    between atoms: _576  and  _579
REMARK  242  A    between atoms: _579  and  _580
REMARK  243  A    between atoms: _580  and  _581
REMARK  244  A    between atoms: _581  and  _582
REMARK  245  A    between atoms: _591  and  _593
REMARK  246  A    between atoms: _593  and  _594
REMARK  247  A    between atoms: _593  and  _596
REMARK  248  A    between atoms: _599  and  _601
REMARK  249  A    between atoms: _601  and  _602
REMARK  250  A    between atoms: _604  and  _606
REMARK  251  A    between atoms: _606  and  _607
REMARK  252  A    between atoms: _606  and  _609
REMARK  253  A    between atoms: _609  and  _610
REMARK  254  A    between atoms: _613  and  _615
REMARK  255  A    between atoms: _615  and  _616
REMARK  256  A    between atoms: _619  and  _621
REMARK  257  A    between atoms: _621  and  _622
REMARK  258  A    between atoms: _621  and  _624
REMARK  259  A    between atoms: _624  and  _625
REMARK  260  A    between atoms: _628  and  _630
REMARK  261  A    between atoms: _630  and  _631
REMARK  262  A    between atoms: _630  and  _633
REMARK  263  A    between atoms: _633  and  _634
REMARK  264  A    between atoms: _639  and  _640
REMARK  265  A    between atoms: _642  and  _644
REMARK  266  A    between atoms: _644  and  _645
REMARK  267  A    between atoms: _644  and  _647
REMARK  268  A    between atoms: _647  and  _648
REMARK  269  A    between atoms: _648  and  _649
REMARK  270  A    between atoms: _651  and  _653
REMARK  271  A    between atoms: _653  and  _654
REMARK  272  A    between atoms: _653  and  _656
REMARK  273  A    between atoms: _656  and  _657
REMARK  274  A    between atoms: _657  and  _658
REMARK  275  A    between atoms: _661  and  _663
REMARK  276  A    between atoms: _663  and  _664
REMARK  277  A    between atoms: _663  and  _666
REMARK  278  A    between atoms: _666  and  _667
REMARK  279  A    between atoms: _673  and  _675
REMARK  280  A    between atoms: _675  and  _676
REMARK  281  A    between atoms: _675  and  _678
REMARK  282  A    between atoms: _678  and  _679
REMARK  283  A    between atoms: _684  and  _686
REMARK  284  A    between atoms: _686  and  _687
REMARK  285  A    between atoms: _686  and  _689
REMARK  286  A    between atoms: _689  and  _690
REMARK  287  A    between atoms: _700  and  _702
REMARK  288  A    between atoms: _702  and  _703
REMARK  289  A    between atoms: _702  and  _705
REMARK  290  A    between atoms: _708  and  _710
REMARK  291  A    between atoms: _710  and  _711
REMARK  292  A    between atoms: _710  and  _713
REMARK  293  A    between atoms: _713  and  _714
REMARK  294  A    between atoms: _717  and  _719
REMARK  295  A    between atoms: _719  and  _720
REMARK  296  A    between atoms: _719  and  _722
REMARK  297  A    between atoms: _722  and  _723
REMARK  298  A    between atoms: _723  and  _724
REMARK  299  A    between atoms: _726  and  _728
REMARK  300  A    between atoms: _728  and  _729
REMARK  301  A    between atoms: _728  and  _731
REMARK  302  A    between atoms: _731  and  _732
REMARK  303  A    between atoms: _735  and  _737
REMARK  304  A    between atoms: _737  and  _738
REMARK  305  A    between atoms: _737  and  _740
REMARK  306  A    between atoms: _740  and  _741
REMARK  307  A    between atoms: _744  and  _746
REMARK  308  A    between atoms: _746  and  _747
REMARK  309  A    between atoms: _746  and  _749
REMARK  310  A    between atoms: _749  and  _750
REMARK  311  A    between atoms: _753  and  _755
REMARK  312  A    between atoms: _755  and  _756
REMARK  313  A    between atoms: _755  and  _758
REMARK  314  A    between atoms: _758  and  _759
REMARK  315  A    between atoms: _762  and  _764
REMARK  316  A    between atoms: _764  and  _765
REMARK  317  A    between atoms: _767  and  _769
REMARK  318  A    between atoms: _769  and  _770
REMARK  319  A    between atoms: _769  and  _772
REMARK  320  A    between atoms: _772  and  _773
REMARK  321  A    between atoms: _775  and  _777
REMARK  322  A    between atoms: _777  and  _778
REMARK  323  A    between atoms: _777  and  _780
REMARK  324  A    between atoms: _780  and  _781
REMARK  325  A    between atoms: _791  and  _793
REMARK  326  A    between atoms: _793  and  _794
REMARK  327  A    between atoms: _793  and  _796
REMARK  328  A    between atoms: _796  and  _797
REMARK  329  A    between atoms: _799  and  _801
REMARK  330  A    between atoms: _801  and  _802
REMARK  331  A    between atoms: _801  and  _804
REMARK  332  A    between atoms: _804  and  _805
REMARK  333  A    between atoms: _808  and  _810
REMARK  334  A    between atoms: _810  and  _811
REMARK  335  A    between atoms: _814  and  _816
REMARK  336  A    between atoms: _816  and  _817
REMARK  337  A    between atoms: _816  and  _819
REMARK  338  A    between atoms: _819  and  _820
REMARK  339  A    between atoms: _822  and  _824
REMARK  340  A    between atoms: _824  and  _825
REMARK  341  A    between atoms: _824  and  _827
REMARK  342  A    between atoms: _827  and  _828
REMARK  343  A    between atoms: _828  and  _829
REMARK  344  A    between atoms: _832  and  _834
REMARK  345  A    between atoms: _834  and  _835
REMARK  346  A    between atoms: _834  and  _837
REMARK  347  A    between atoms: _837  and  _838
REMARK  348  A    between atoms: _840  and  _842
REMARK  349  A    between atoms: _842  and  _843
REMARK  350  A    between atoms: _842  and  _845
REMARK  351  A    between atoms: _845  and  _846
REMARK  352  A    between atoms: _846  and  _847
REMARK  353  A    between atoms: _852  and  _854
REMARK  354  A    between atoms: _854  and  _855
REMARK  355  A    between atoms: _854  and  _857
REMARK  356  A    between atoms: _857  and  _858
REMARK  357  A    between atoms: _858  and  _859
REMARK  358  A    between atoms: _864  and  _866
REMARK  359  A    between atoms: _866  and  _867
REMARK  360  A    between atoms: _866  and  _869
REMARK  361  A    between atoms: _869  and  _870
REMARK  362  A    between atoms: _873  and  _875
REMARK  363  A    between atoms: _875  and  _876
REMARK  364  A    between atoms: _875  and  _878
REMARK  365  A    between atoms: _878  and  _879
REMARK  366  A    between atoms: _882  and  _884
REMARK  367  A    between atoms: _884  and  _885
REMARK  368  A    between atoms: _884  and  _887
REMARK  369  A    between atoms: _887  and  _888
REMARK  370  A    between atoms: _895  and  _896
REMARK  371  A    between atoms: _901  and  _903
REMARK  372  A    between atoms: _903  and  _904
REMARK  373  A    between atoms: _903  and  _906
REMARK  374  A    between atoms: _906  and  _907
REMARK  375  A    between atoms: _912  and  _913
REMARK  376  A    between atoms: _915  and  _917
REMARK  377  A    between atoms: _917  and  _918
REMARK  378  A    between atoms: _917  and  _920
REMARK  379  A    between atoms: _920  and  _921
REMARK  380  A    between atoms: _926  and  _928
REMARK  381  A    between atoms: _928  and  _929
REMARK  382  A    between atoms: _928  and  _931
REMARK  383  A    between atoms: _931  and  _932
REMARK  384  A    between atoms: _938  and  _940
REMARK  385  A    between atoms: _940  and  _941
REMARK  386  A    between atoms: _940  and  _943
REMARK  387  A    between atoms: _943  and  _944
REMARK  388  A    between atoms: _947  and  _949
REMARK  389  A    between atoms: _949  and  _950
REMARK  390  A    between atoms: _949  and  _952
REMARK  391  A    between atoms: _952  and  _953
REMARK  392  A    between atoms: _958  and  _960
REMARK  393  A    between atoms: _960  and  _961
REMARK  394  A    between atoms: _960  and  _963
REMARK  395  A    between atoms: _963  and  _964
REMARK  396  A    between atoms: _970  and  _972
REMARK  397  A    between atoms: _972  and  _973
REMARK  398  A    between atoms: _972  and  _975
REMARK  399  A    between atoms: _975  and  _976
REMARK  400  A    between atoms: _976  and  _977
REMARK  401  A    between atoms: _979  and  _981
REMARK  402  A    between atoms: _981  and  _982
REMARK  403  A    between atoms: _981  and  _984
REMARK  404  A    between atoms: _984  and  _985
REMARK  405  A    between atoms: _988  and  _990
REMARK  406  A    between atoms: _990  and  _991
REMARK  407  A    between atoms: _990  and  _993
REMARK  408  A    between atoms: _993  and  _994
REMARK  409  A    between atoms: _999  and  _1001
REMARK  410  A    between atoms: _1001  and  _1002
REMARK  411  A    between atoms: _1001  and  _1004
REMARK  412  A    between atoms: _1004  and  _1005
REMARK  413  A    between atoms: _1010  and  _1011
REMARK                            x       y       z     vdW  Elec       q    Type
REMARK                         _______ _______ _______ _____ _____    ______ ____
ROOT
ATOM      1  CA  THR A   1      -5.109   7.039  21.760  0.00  0.00    +0.160 C 
ENDROOT
BRANCH   1   2
ATOM      2  N   THR A   1      -4.613   8.374  22.088  0.00  0.00    -0.237 NA
ATOM      3  H   THR A   1      -5.181   8.976  22.717  0.00  0.00    +0.142 HD
ENDBRANCH   1   2
BRANCH   1   4
ATOM      4  CB  THR A   1      -6.428   6.733  22.497  0.00  0.00    +0.134 C 
ATOM      5  CG2 THR A   1      -6.849   5.289  22.277  0.00  0.00    +0.034 C 
BRANCH   4   6
ATOM      6  OG1 THR A   1      -6.256   6.965  23.898  0.00  0.00    -0.383 OA
ATOM      7  HG1 THR A   1      -7.103   6.768  24.370  0.00  0.00    +0.210 HD
ENDBRANCH   4   6
ENDBRANCH   1   4
BRANCH   1   8
ATOM      8  C   THR A   1      -5.324   6.886  20.253  0.00  0.00    +0.227 C 
ATOM      9  O   THR A   1      -5.002   5.843  19.678  0.00  0.00    -0.287 OA
ENDBRANCH   1   8
TORSDOF 4
REMARK  Name = ../refined-set-2016/3drg/3drg_pocket.pdb
REMARK  413 active torsions:
REMARK  status: ('A' for Active; 'I' for Inactive)
REMARK    1  A    between atoms: _1  and  _3
REMARK    2  A    between atoms: _3  and  _4
REMARK    3  A    between atoms: _3  and  _6
REMARK    4  A    between atoms: _6  and  _7
REMARK    5  A    between atoms: _12  and  _13
REMARK    6  A    between atoms: _15  and  _17
REMARK    7  A    between atoms: _17  and  _18
REMARK    8  A    between atoms: _17  and  _20
REMARK    9  A    between atoms: _20  and  _21
REMARK   10  A    between atoms: _21  and  _22
REMARK   11  A    between atoms: _27  and  _29
REMARK   12  A    between atoms: _29  and  _30
REMARK   13  A    between atoms: _29  and  _32
REMARK   14  A    between atoms: _32  and  _33
REMARK   15  A    between atoms: _35  and  _37
REMARK   16  A    between atoms: _37  and  _38
REMARK   17  A    between atoms: _37  and  _40
REMARK   18  A    between atoms: _40  and  _41
REMARK   19  A    between atoms: _44  and  _46
REMARK   20  A    between atoms: _46  and  _47
REMARK   21  A    between atoms: _46  and  _49
REMARK   22  A    between atoms: _49  and  _50
REMARK   23  A    between atoms: _52  and  _54
REMARK   24  A    between atoms: _54  and  _55
REMARK   25  A    between atoms: _54  and  _57
REMARK   26  A    between atoms: _57  and  _58
REMARK   27  A    between atoms: _61  and  _63
REMARK   28  A    between atoms: _63  and  _64
REMARK   29  A    between atoms: _63  and  _66
REMARK   30  A    between atoms: _66  and  _67
REMARK   31  A    between atoms: _69  and  _71
REMARK   32  A    between atoms: _71  and  _72
REMARK   33  A    between atoms: _74  and  _76
REMARK   34  A    between atoms: _76  and  _77
REMARK   35  A    between atoms: _76  and  _79
REMARK   36  A    between atoms: _79  and  _80
REMARK   37  A    between atoms: _82  and  _84
REMARK   38  A    between atoms: _84  and  _85
REMARK   39  A    between atoms: _84  and  _87
REMARK   40  A    between atoms: _87  and  _88
REMARK   41  A    between atoms: _93  and  _95
REMARK   42  A    between atoms: _95  and  _96
REMARK   43  A    between atoms: _95  and  _98
REMARK   44  A    between atoms: _98  and  _99
REMARK   45  A    between atoms: _102  and  _104
REMARK   46  A    between atoms: _104  and  _105
REMARK   47  A    between atoms: _108  and  _110
REMARK   48  A    between atoms: _110  and  _111
REMARK   49  A    between atoms: _110  and  _113
REMARK   50  A    between atoms: _113  and  _114
REMARK   51  A    between atoms: _117  and  _119
REMARK   52  A    between atoms: _119  and  _120
REMARK   53  A    between atoms: _119  and  _122
REMARK   54  A    between atoms: _122  and  _123
REMARK   55  A    between atoms: _129  and  _131
REMARK   56  A    between atoms: _131  and  _132
REMARK   57  A    between atoms: _135  and  _137
REMARK   58  A    between atoms: _137  and  _138
REMARK   59  A    between atoms: _137  and  _140
REMARK   60  A    between atoms: _140  and  _141
REMARK   61  A    between atoms: _144  and  _146
REMARK   62  A    between atoms: _146  and  _147
REMARK   63  A    between atoms: _146  and  _149
REMARK   64  A    between atoms: _149  and  _150
REMARK   65  A    between atoms: _152  and  _154
REMARK   66  A    between atoms: _154  and  _155
REMARK   67  A    between atoms: _157  and  _159
REMARK   68  A    between atoms: _159  and  _160
REMARK   69  A    between atoms: _162  and  _164
REMARK   70  A    between atoms: _164  and  _165
REMARK   71  A    between atoms: _164  and  _167
REMARK   72  A    between atoms: _167  and  _168
REMARK   73  A    between atoms: _168  and  _169
REMARK   74  A    between atoms: _174  and  _176
REMARK   75  A    between atoms: _176  and  _177
REMARK   76  A    between atoms: _176  and  _179
REMARK   77  A    between atoms: _179  and  _180
REMARK   78  A    between atoms: _183  and  _185
REMARK   79  A    between atoms: _185  and  _186
REMARK   80  A    between atoms: _188  and  _190
REMARK   81  A    between atoms: _190  and  _191
REMARK   82  A    between atoms: _190  and  _193
REMARK   83  A    between atoms: _193  and  _194
REMARK   84  A    between atoms: _197  and  _199
REMARK   85  A    between atoms: _199  and  _200
REMARK   86  A    between atoms: _199  and  _202
REMARK   87  A    between atoms: _202  and  _203
REMARK   88  A    between atoms: _209  and  _211
REMARK   89  A    between atoms: _211  and  _212
REMARK   90  A    between atoms: _211  and  _214
REMARK   91  A    between atoms: _214  and  _215
REMARK   92  A    between atoms: _218  and  _220
REMARK   93  A    between atoms: _220  and  _221
REMARK   94  A    between atoms: _220  and  _223
REMARK   95  A    between atoms: _223  and  _224
REMARK   96  A    between atoms: _230  and  _232
REMARK   97  A    between atoms: _232  and  _233
REMARK   98  A    between atoms: _232  and  _235
REMARK   99  A    between atoms: _235  and  _236
REMARK  100  A    between atoms: _242  and  _244
REMARK  101  A    between atoms: _244  and  _245
REMARK  102  A    between atoms: _244  and  _247
REMARK  103  A    between atoms: _247  and  _248
REMARK  104  A    between atoms: _251  and  _253
REMARK  105  A    between atoms: _253  and  _254
REMARK  106  A    between atoms: _253  and  _256
REMARK  107  A    between atoms: _256  and  _257
REMARK  108  A    between atoms: _260  and  _262
REMARK  109  A    between atoms: _262  and  _263
REMARK  110  A    between atoms: _262  and  _265
REMARK  111  A    between atoms: _265  and  _266
REMARK  112  A    between atoms: _266  and  _267
REMARK  113  A    between atoms: _267  and  _268
REMARK  114  A    between atoms: _277  and  _279
REMARK  115  A    between atoms: _279  and  _280
REMARK  116  A    between atoms: _279  and  _282
REMARK  117  A    between atoms: _282  and  _283
REMARK  118  A    between atoms: _286  and  _288
REMARK  119  A    between atoms: _288  and  _289
REMARK  120  A    between atoms: _288  and  _291
REMARK  121  A    between atoms: _291  and  _292
REMARK  122  A    between atoms: _292  and  _293
REMARK  123  A    between atoms: _298  and  _300
REMARK  124  A    between atoms: _300  and  _301
REMARK  125  A    between atoms: _300  and  _303
REMARK  126  A    between atoms: _303  and  _304
REMARK  127  A    between atoms: _306  and  _308
REMARK  128  A    between atoms: _308  and  _309
REMARK  129  A    between atoms: _311  and  _313
REMARK  130  A    between atoms: _313  and  _314
REMARK  131  A    between atoms: _313  and  _316
REMARK  132  A    between atoms: _316  and  _317
REMARK  133  A    between atoms: _322  and  _324
REMARK  134  A    between atoms: _324  and  _325
REMARK  135  A    between atoms: _327  and  _329
REMARK  136  A    between atoms: _329  and  _330
REMARK  137  A    between atoms: _329  and  _332
REMARK  138  A    between atoms: _332  and  _333
REMARK  139  A    between atoms: _339  and  _341
REMARK  140  A    between atoms: _341  and  _342
REMARK  141  A    between atoms: _341  and  _344
REMARK  142  A    between atoms: _344  and  _345
REMARK  143  A    between atoms: _348  and  _350
REMARK  144  A    between atoms: _350  and  _351
REMARK  145  A    between atoms: _350  and  _353
REMARK  146  A    between atoms: _353  and  _354
REMARK  147  A    between atoms: _354  and  _355
REMARK  148  A    between atoms: _358  and  _360
REMARK  149  A    between atoms: _360  and  _361
REMARK  150  A    between atoms: _360  and  _363
REMARK  151  A    between atoms: _363  and  _364
REMARK  152  A    between atoms: _367  and  _369
REMARK  153  A    between atoms: _369  and  _370
REMARK  154  A    between atoms: _369  and  _372
REMARK  155  A    between atoms: _375  and  _377
REMARK  156  A    between atoms: _377  and  _378
REMARK  157  A    between atoms: _377  and  _380
REMARK  158  A    between atoms: _380  and  _381
REMARK  159  A    between atoms: _384  and  _386
REMARK  160  A    between atoms: _386  and  _387
REMARK  161  A    between atoms: _386  and  _389
REMARK  162  A    between atoms: _389  and  _390
REMARK  163  A    between atoms: _395  and  _397
REMARK  164  A    between atoms: _397  and  _398
REMARK  165  A    between atoms: _400  and  _402
REMARK  166  A    between atoms: _402  and  _403
REMARK  167  A    between atoms: _402  and  _405
REMARK  168  A    between atoms: _405  and  _406
REMARK  169  A    between atoms: _406  and  _407
REMARK  170  A    between atoms: _409  and  _411
REMARK  171  A    between atoms: _411  and  _412
REMARK  172  A    between atoms: _411  and  _414
REMARK  173  A    between atoms: _417  and  _419
REMARK  174  A    between atoms: _419  and  _420
REMARK  175  A    between atoms: _419  and  _422
REMARK  176  A    between atoms: _422  and  _423
REMARK  177  A    between atoms: _425  and  _427
REMARK  178  A    between atoms: _427  and  _428
REMARK  179  A    between atoms: _427  and  _430
REMARK  180  A    between atoms: _430  and  _431
REMARK  181  A    between atoms: _433  and  _435
REMARK  182  A    between atoms: _435  and  _436
REMARK  183  A    between atoms: _435  and  _438
REMARK  184  A    between atoms: _438  and  _439
REMARK  185  A    between atoms: _439  and  _440
REMARK  186  A    between atoms: _445  and  _447
REMARK  187  A    between atoms: _447  and  _448
REMARK  188  A    between atoms: _451  and  _453
REMARK  189  A    between atoms: _453  and  _454
REMARK  190  A    between atoms: _453  and  _456
REMARK  191  A    between atoms: _456  and  _457
REMARK  192  A    between atoms: _457  and  _458
REMARK  193  A    between atoms: _460  and  _462
REMARK  194  A    between atoms: _462  and  _463
REMARK  195  A    between atoms: _462  and  _465
REMARK  196  A    between atoms: _465  and  _466
REMARK  197  A    between atoms: _471  and  _472
REMARK  198  A    between atoms: _474  and  _476
REMARK  199  A    between atoms: _476  and  _477
REMARK  200  A    between atoms: _476  and  _479
REMARK  201  A    between atoms: _479  and  _480
REMARK  202  A    between atoms: _483  and  _485
REMARK  203  A    between atoms: _485  and  _486
REMARK  204  A    between atoms: _485  and  _488
REMARK  205  A    between atoms: _488  and  _489
REMARK  206  A    between atoms: _491  and  _493
REMARK  207  A    between atoms: _493  and  _494
REMARK  208  A    between atoms: _493  and  _496
REMARK  209  A    between atoms: _496  and  _497
REMARK  210  A    between atoms: _500  and  _502
REMARK  211  A    between atoms: _502  and  _503
REMARK  212  A    between atoms: _502  and  _505
REMARK  213  A    between atoms: _505  and  _506
REMARK  214  A    between atoms: _506  and  _507
REMARK  215  A    between atoms: _509  and  _511
REMARK  216  A    between atoms: _511  and  _512
REMARK  217  A    between atoms: _511  and  _514
REMARK  218  A    between atoms: _514  and  _515
REMARK  219  A    between atoms: _520  and  _521
REMARK  220  A    between atoms: _523  and  _525
REMARK  221  A    between atoms: _525  and  _526
REMARK  222  A    between atoms: _525  and  _528
REMARK  223  A    between atoms: _528  and  _529
REMARK  224  A    between atoms: _529  and  _530
REMARK  225  A    between atoms: _530  and  _531
REMARK  226  A    between atoms: _540  and  _542
REMARK  227  A    between atoms: _542  and  _543
REMARK  228  A    between atoms: _542  and  _545
REMARK  229  A    between atoms: _545  and  _546
REMARK  230  A    between atoms: _548  and  _550
REMARK  231  A    between atoms: _550  and  _551
REMARK  232  A    between atoms: _550  and  _553
REMARK  233  A    between atoms: _553  and  _554
REMARK  234  A    between atoms: _559  and  _560
REMARK  235  A    between atoms: _562  and  _564
REMARK  236  A    between atoms: _564  and  _565
REMARK  237  A    between atoms: _568  and  _570
REMARK  238  A    between atoms: _570  and  _571
REMARK  239  A    between atoms: _574  and  _576
REMARK  240  A    between atoms: _576  and  _577
REMARK  241  A    between atoms: _576  and  _579
REMARK  242  A    between atoms: _579  and  _580
REMARK  243  A    between atoms: _580  and  _581
REMARK  244  A    between atoms: _581  and  _582
REMARK  245  A    between atoms: _591  and  _593
REMARK  246  A    between atoms: _593  and  _594
REMARK  247  A    between atoms: _593  and  _596
REMARK  248  A    between atoms: _599  and  _601
REMARK  249  A    between atoms: _601  and  _602
REMARK  250  A    between atoms: _604  and  _606
REMARK  251  A    between atoms: _606  and  _607
REMARK  252  A    between atoms: _606  and  _609
REMARK  253  A    between atoms: _609  and  _610
REMARK  254  A    between atoms: _613  and  _615
REMARK  255  A    between atoms: _615  and  _616
REMARK  256  A    between atoms: _619  and  _621
REMARK  257  A    between atoms: _621  and  _622
REMARK  258  A    between atoms: _621  and  _624
REMARK  259  A    between atoms: _624  and  _625
REMARK  260  A    between atoms: _628  and  _630
REMARK  261  A    between atoms: _630  and  _631
REMARK  262  A    between atoms: _630  and  _633
REMARK  263  A    between atoms: _633  and  _634
REMARK  264  A    between atoms: _639  and  _640
REMARK  265  A    between atoms: _642  and  _644
REMARK  266  A    between atoms: _644  and  _645
REMARK  267  A    between atoms: _644  and  _647
REMARK  268  A    between atoms: _647  and  _648
REMARK  269  A    between atoms: _648  and  _649
REMARK  270  A    between atoms: _651  and  _653
REMARK  271  A    between atoms: _653  and  _654
REMARK  272  A    between atoms: _653  and  _656
REMARK  273  A    between atoms: _656  and  _657
REMARK  274  A    between atoms: _657  and  _658
REMARK  275  A    between atoms: _661  and  _663
REMARK  276  A    between atoms: _663  and  _664
REMARK  277  A    between atoms: _663  and  _666
REMARK  278  A    between atoms: _666  and  _667
REMARK  279  A    between atoms: _673  and  _675
REMARK  280  A    between atoms: _675  and  _676
REMARK  281  A    between atoms: _675  and  _678
REMARK  282  A    between atoms: _678  and  _679
REMARK  283  A    between atoms: _684  and  _686
REMARK  284  A    between atoms: _686  and  _687
REMARK  285  A    between atoms: _686  and  _689
REMARK  286  A    between atoms: _689  and  _690
REMARK  287  A    between atoms: _700  and  _702
REMARK  288  A    between atoms: _702  and  _703
REMARK  289  A    between atoms: _702  and  _705
REMARK  290  A    between atoms: _708  and  _710
REMARK  291  A    between atoms: _710  and  _711
REMARK  292  A    between atoms: _710  and  _713
REMARK  293  A    between atoms: _713  and  _714
REMARK  294  A    between atoms: _717  and  _719
REMARK  295  A    between atoms: _719  and  _720
REMARK  296  A    between atoms: _719  and  _722
REMARK  297  A    between atoms: _722  and  _723
REMARK  298  A    between atoms: _723  and  _724
REMARK  299  A    between atoms: _726  and  _728
REMARK  300  A    between atoms: _728  and  _729
REMARK  301  A    between atoms: _728  and  _731
REMARK  302  A    between atoms: _731  and  _732
REMARK  303  A    between atoms: _735  and  _737
REMARK  304  A    between atoms: _737  and  _738
REMARK  305  A    between atoms: _737  and  _740
REMARK  306  A    between atoms: _740  and  _741
REMARK  307  A    between atoms: _744  and  _746
REMARK  308  A    between atoms: _746  and  _747
REMARK  309  A    between atoms: _746  and  _749
REMARK  310  A    between atoms: _749  and  _750
REMARK  311  A    between atoms: _753  and  _755
REMARK  312  A    between atoms: _755  and  _756
REMARK  313  A    between atoms: _755  and  _758
REMARK  314  A    between atoms: _758  and  _759
REMARK  315  A    between atoms: _762  and  _764
REMARK  316  A    between atoms: _764  and  _765
REMARK  317  A    between atoms: _767  and  _769
REMARK  318  A    between atoms: _769  and  _770
REMARK  319  A    between atoms: _769  and  _772
REMARK  320  A    between atoms: _772  and  _773
REMARK  321  A    between atoms: _775  and  _777
REMARK  322  A    between atoms: _777  and  _778
REMARK  323  A    between atoms: _777  and  _780
REMARK  324  A    between atoms: _780  and  _781
REMARK  325  A    between atoms: _791  and  _793
REMARK  326  A    between atoms: _793  and  _794
REMARK  327  A    between atoms: _793  and  _796
REMARK  328  A    between atoms: _796  and  _797
REMARK  329  A    between atoms: _799  and  _801
REMARK  330  A    between atoms: _801  and  _802
REMARK  331  A    between atoms: _801  and  _804
REMARK  332  A    between atoms: _804  and  _805
REMARK  333  A    between atoms: _808  and  _810
REMARK  334  A    between atoms: _810  and  _811
REMARK  335  A    between atoms: _814  and  _816
REMARK  336  A    between atoms: _816  and  _817
REMARK  337  A    between atoms: _816  and  _819
REMARK  338  A    between atoms: _819  and  _820
REMARK  339  A    between atoms: _822  and  _824
REMARK  340  A    between atoms: _824  and  _825
REMARK  341  A    between atoms: _824  and  _827
REMARK  342  A    between atoms: _827  and  _828
REMARK  343  A    between atoms: _828  and  _829
REMARK  344  A    between atoms: _832  and  _834
REMARK  345  A    between atoms: _834  and  _835
REMARK  346  A    between atoms: _834  and  _837
REMARK  347  A    between atoms: _837  and  _838
REMARK  348  A    between atoms: _840  and  _842
REMARK  349  A    between atoms: _842  and  _843
REMARK  350  A    between atoms: _842  and  _845
REMARK  351  A    between atoms: _845  and  _846
REMARK  352  A    between atoms: _846  and  _847
REMARK  353  A    between atoms: _852  and  _854
REMARK  354  A    between atoms: _854  and  _855
REMARK  355  A    between atoms: _854  and  _857
REMARK  356  A    between atoms: _857  and  _858
REMARK  357  A    between atoms: _858  and  _859
REMARK  358  A    between atoms: _864  and  _866
REMARK  359  A    between atoms: _866  and  _867
REMARK  360  A    between atoms: _866  and  _869
REMARK  361  A    between atoms: _869  and  _870
REMARK  362  A    between atoms: _873  and  _875
REMARK  363  A    between atoms: _875  and  _876
REMARK  364  A    between atoms: _875  and  _878
REMARK  365  A    between atoms: _878  and  _879
REMARK  366  A    between atoms: _882  and  _884
REMARK  367  A    between atoms: _884  and  _885
REMARK  368  A    between atoms: _884  and  _887
REMARK  369  A    between atoms: _887  and  _888
REMARK  370  A    between atoms: _895  and  _896
REMARK  371  A    between atoms: _901  and  _903
REMARK  372  A    between atoms: _903  and  _904
REMARK  373  A    between atoms: _903  and  _906
REMARK  374  A    between atoms: _906  and  _907
REMARK  375  A    between atoms: _912  and  _913
REMARK  376  A    between atoms: _915  and  _917
REMARK  377  A    between atoms: _917  and  _918
REMARK  378  A    between atoms: _917  and  _920
REMARK  379  A    between atoms: _920  and  _921
REMARK  380  A    between atoms: _926  and  _928
REMARK  381  A    between atoms: _928  and  _929
REMARK  382  A    between atoms: _928  and  _931
REMARK  383  A    between atoms: _931  and  _932
REMARK  384  A    between atoms: _938  and  _940
REMARK  385  A    between atoms: _940  and  _941
REMARK  386  A    between atoms: _940  and  _943
REMARK  387  A    between atoms: _943  and  _944
REMARK  388  A    between atoms: _947  and  _949
REMARK  389  A    between atoms: _949  and  _950
REMARK  390  A    between atoms: _949  and  _952
REMARK  391  A    between atoms: _952  and  _953
REMARK  392  A    between atoms: _958  and  _960
REMARK  393  A    between atoms: _960  and  _961
REMARK  394  A    between atoms: _960  and  _963
REMARK  395  A    between atoms: _963  and  _964
REMARK  396  A    between atoms: _970  and  _972
REMARK  397  A    between atoms: _972  and  _973
REMARK  398  A    between atoms: _972  and  _975
REMARK  399  A    between atoms: _975  and  _976
REMARK  400  A    between atoms: _976  and  _977
REMARK  401  A    between atoms: _979  and  _981
REMARK  402  A    between atoms: _981  and  _982
REMARK  403  A    between atoms: _981  and  _984
REMARK  404  A    between atoms: _984  and  _985
REMARK  405  A    between atoms: _988  and  _990
REMARK  406  A    between atoms: _990  and  _991
REMARK  407  A    between atoms: _990  and  _993
REMARK  408  A    between atoms: _993  and  _994
REMARK  409  A    between atoms: _999  and  _1001
REMARK  410  A    between atoms: _1001  and  _1002
REMARK  411  A    between atoms: _1001  and  _1004
REMARK  412  A    between atoms: _1004  and  _1005
REMARK  413  A    between atoms: _1010  and  _1011
REMARK                            x       y       z     vdW  Elec       q    Type
REMARK                         _______ _______ _______ _____ _____    ______ ____
ROOT
ATOM      1  CA  ARG A   2      -6.092  -1.855  14.599  0.00  0.00    +0.137 C 
ENDROOT
BRANCH   1   3
ATOM      2  C   ASP A   1      -4.285  -3.252  13.724  0.00  0.00    +0.239 C 
ATOM      3  N   ARG A   2      -4.680  -2.181  14.411  0.00  0.00    -0.298 N 
ATOM      4  H   ARG A   2      -3.960  -1.557  14.827  0.00  0.00    +0.150 HD
ATOM      5  O   ASP A   1      -5.054  -3.940  13.047  0.00  0.00    -0.274 OA
BRANCH   2   6
ATOM      6  CA  ASP A   1      -2.792  -3.584  13.791  0.00  0.00    +0.156 C 
BRANCH   6   7
ATOM      7  N   ASP A   1      -2.114  -2.747  14.773  0.00  0.00    -0.238 NA
ATOM      8  H   ASP A   1      -2.206  -2.984  15.781  0.00  0.00    +0.142 HD
ENDBRANCH   6   7
BRANCH   6   9
ATOM      9  CB  ASP A   1      -2.594  -5.064  14.138  0.00  0.00    +0.140 C 
BRANCH   9  10
ATOM     10  CG  ASP A   1      -1.129  -5.454  14.234  0.00  0.00    +0.367 C 
ATOM     11  OD2 ASP A   1      -0.706  -5.924  15.311  0.00  0.00    -0.246 OA
ATOM     12  OD1 ASP A   1      -0.400  -5.297  13.233  0.00  0.00    -0.246 OA
ENDBRANCH   9  10
ENDBRANCH   6   9
ENDBRANCH   2   6
ENDBRANCH   1   3
BRANCH   1  13
ATOM     13  C   ARG A   2      -6.656  -0.767  13.677  0.00  0.00    +0.227 C 
ATOM     14  O   ARG A   2      -7.713  -0.197  13.972  0.00  0.00    -0.286 OA
ENDBRANCH   1  13
BRANCH   1  15
ATOM     15  CB  ARG A   2      -6.359  -1.491  16.064  0.00  0.00    +0.031 C 
BRANCH  15  16
ATOM     16  CG  ARG A   2      -6.329  -2.675  17.007  0.00  0.00    +0.045 C 
BRANCH  16  17
ATOM     17  CD  ARG A   2      -6.870  -2.302  18.376  0.00  0.00    +0.174 C 
BRANCH  17  18
ATOM     18  NE  ARG A   2      -6.937  -3.460  19.261  0.00  0.00    -0.265 N 
ATOM     19  HE  ARG A   2      -6.124  -3.638  19.885  0.00  0.00    +0.259 HD
ATOM     20  CZ  ARG A   2      -7.962  -4.305  19.327  0.00  0.00    +0.342 C 
ATOM     21  NH2 ARG A   2      -7.916  -5.331  20.164  0.00  0.00    -0.292 N 
ATOM     22 HH21 ARG A   2      -7.080  -5.473  20.767  0.00  0.00    +0.255 HD
ATOM     23 HH22 ARG A   2      -8.715  -5.994  20.218  0.00  0.00    +0.255 HD
ATOM     24  NH1 ARG A   2      -9.029  -4.136  18.555  0.00  0.00    -0.292 N 
ATOM     25 HH11 ARG A   2      -9.825  -4.803  18.615  0.00  0.00    +0.255 HD
ATOM     26 HH12 ARG A   2      -9.069  -3.337  17.891  0.00  0.00    +0.255 HD
ENDBRANCH  17  18
ENDBRANCH  16  17
ENDBRANCH  15  16
ENDBRANCH   1  15
TORSDOF 10
REMARK  Name = ../refined-set-2016/3drg/3drg_pocket.pdb
REMARK  413 active torsions:
REMARK  status: ('A' for Active; 'I' for Inactive)
REMARK    1  A    between atoms: _1  and  _3
REMARK    2  A    between atoms: _3  and  _4
REMARK    3  A    between atoms: _3  and  _6
REMARK    4  A    between atoms: _6  and  _7
REMARK    5  A    between atoms: _12  and  _13
REMARK    6  A    between atoms: _15  and  _17
REMARK    7  A    between atoms: _17  and  _18
REMARK    8  A    between atoms: _17  and  _20
REMARK    9  A    between atoms: _20  and  _21
REMARK   10  A    between atoms: _21  and  _22
REMARK   11  A    between atoms: _27  and  _29
REMARK   12  A    between atoms: _29  and  _30
REMARK   13  A    between atoms: _29  and  _32
REMARK   14  A    between atoms: _32  and  _33
REMARK   15  A    between atoms: _35  and  _37
REMARK   16  A    between atoms: _37  and  _38
REMARK   17  A    between atoms: _37  and  _40
REMARK   18  A    between atoms: _40  and  _41
REMARK   19  A    between atoms: _44  and  _46
REMARK   20  A    between atoms: _46  and  _47
REMARK   21  A    between atoms: _46  and  _49
REMARK   22  A    between atoms: _49  and  _50
REMARK   23  A    between atoms: _52  and  _54
REMARK   24  A    between atoms: _54  and  _55
REMARK   25  A    between atoms: _54  and  _57
REMARK   26  A    between atoms: _57  and  _58
REMARK   27  A    between atoms: _61  and  _63
REMARK   28  A    between atoms: _63  and  _64
REMARK   29  A    between atoms: _63  and  _66
REMARK   30  A    between atoms: _66  and  _67
REMARK   31  A    between atoms: _69  and  _71
REMARK   32  A    between atoms: _71  and  _72
REMARK   33  A    between atoms: _74  and  _76
REMARK   34  A    between atoms: _76  and  _77
REMARK   35  A    between atoms: _76  and  _79
REMARK   36  A    between atoms: _79  and  _80
REMARK   37  A    between atoms: _82  and  _84
REMARK   38  A    between atoms: _84  and  _85
REMARK   39  A    between atoms: _84  and  _87
REMARK   40  A    between atoms: _87  and  _88
REMARK   41  A    between atoms: _93  and  _95
REMARK   42  A    between atoms: _95  and  _96
REMARK   43  A    between atoms: _95  and  _98
REMARK   44  A    between atoms: _98  and  _99
REMARK   45  A    between atoms: _102  and  _104
REMARK   46  A    between atoms: _104  and  _105
REMARK   47  A    between atoms: _108  and  _110
REMARK   48  A    between atoms: _110  and  _111
REMARK   49  A    between atoms: _110  and  _113
REMARK   50  A    between atoms: _113  and  _114
REMARK   51  A    between atoms: _117  and  _119
REMARK   52  A    between atoms: _119  and  _120
REMARK   53  A    between atoms: _119  and  _122
REMARK   54  A    between atoms: _122  and  _123
REMARK   55  A    between atoms: _129  and  _131
REMARK   56  A    between atoms: _131  and  _132
REMARK   57  A    between atoms: _135  and  _137
REMARK   58  A    between atoms: _137  and  _138
REMARK   59  A    between atoms: _137  and  _140
REMARK   60  A    between atoms: _140  and  _141
REMARK   61  A    between atoms: _144  and  _146
REMARK   62  A    between atoms: _146  and  _147
REMARK   63  A    between atoms: _146  and  _149
REMARK   64  A    between atoms: _149  and  _150
REMARK   65  A    between atoms: _152  and  _154
REMARK   66  A    between atoms: _154  and  _155
REMARK   67  A    between atoms: _157  and  _159
REMARK   68  A    between atoms: _159  and  _160
REMARK   69  A    between atoms: _162  and  _164
REMARK   70  A    between atoms: _164  and  _165
REMARK   71  A    between atoms: _164  and  _167
REMARK   72  A    between atoms: _167  and  _168
REMARK   73  A    between atoms: _168  and  _169
REMARK   74  A    between atoms: _174  and  _176
REMARK   75  A    between atoms: _176  and  _177
REMARK   76  A    between atoms: _176  and  _179
REMARK   77  A    between atoms: _179  and  _180
REMARK   78  A    between atoms: _183  and  _185
REMARK   79  A    between atoms: _185  and  _186
REMARK   80  A    between atoms: _188  and  _190
REMARK   81  A    between atoms: _190  and  _191
REMARK   82  A    between atoms: _190  and  _193
REMARK   83  A    between atoms: _193  and  _194
REMARK   84  A    between atoms: _197  and  _199
REMARK   85  A    between atoms: _199  and  _200
REMARK   86  A    between atoms: _199  and  _202
REMARK   87  A    between atoms: _202  and  _203
REMARK   88  A    between atoms: _209  and  _211
REMARK   89  A    between atoms: _211  and  _212
REMARK   90  A    between atoms: _211  and  _214
REMARK   91  A    between atoms: _214  and  _215
REMARK   92  A    between atoms: _218  and  _220
REMARK   93  A    between atoms: _220  and  _221
REMARK   94  A    between atoms: _220  and  _223
REMARK   95  A    between atoms: _223  and  _224
REMARK   96  A    between atoms: _230  and  _232
REMARK   97  A    between atoms: _232  and  _233
REMARK   98  A    between atoms: _232  and  _235
REMARK   99  A    between atoms: _235  and  _236
REMARK  100  A    between atoms: _242  and  _244
REMARK  101  A    between atoms: _244  and  _245
REMARK  102  A    between atoms: _244  and  _247
REMARK  103  A    between atoms: _247  and  _248
REMARK  104  A    between atoms: _251  and  _253
REMARK  105  A    between atoms: _253  and  _254
REMARK  106  A    between atoms: _253  and  _256
REMARK  107  A    between atoms: _256  and  _257
REMARK  108  A    between atoms: _260  and  _262
REMARK  109  A    between atoms: _262  and  _263
REMARK  110  A    between atoms: _262  and  _265
REMARK  111  A    between atoms: _265  and  _266
REMARK  112  A    between atoms: _266  and  _267
REMARK  113  A    between atoms: _267  and  _268
REMARK  114  A    between atoms: _277  and  _279
REMARK  115  A    between atoms: _279  and  _280
REMARK  116  A    between atoms: _279  and  _282
REMARK  117  A    between atoms: _282  and  _283
REMARK  118  A    between atoms: _286  and  _288
REMARK  119  A    between atoms: _288  and  _289
REMARK  120  A    between atoms: _288  and  _291
REMARK  121  A    between atoms: _291  and  _292
REMARK  122  A    between atoms: _292  and  _293
REMARK  123  A    between atoms: _298  and  _300
REMARK  124  A    between atoms: _300  and  _301
REMARK  125  A    between atoms: _300  and  _303
REMARK  126  A    between atoms: _303  and  _304
REMARK  127  A    between atoms: _306  and  _308
REMARK  128  A    between atoms: _308  and  _309
REMARK  129  A    between atoms: _311  and  _313
REMARK  130  A    between atoms: _313  and  _314
REMARK  131  A    between atoms: _313  and  _316
REMARK  132  A    between atoms: _316  and  _317
REMARK  133  A    between atoms: _322  and  _324
REMARK  134  A    between atoms: _324  and  _325
REMARK  135  A    between atoms: _327  and  _329
REMARK  136  A    between atoms: _329  and  _330
REMARK  137  A    between atoms: _329  and  _332
REMARK  138  A    between atoms: _332  and  _333
REMARK  139  A    between atoms: _339  and  _341
REMARK  140  A    between atoms: _341  and  _342
REMARK  141  A    between atoms: _341  and  _344
REMARK  142  A    between atoms: _344  and  _345
REMARK  143  A    between atoms: _348  and  _350
REMARK  144  A    between atoms: _350  and  _351
REMARK  145  A    between atoms: _350  and  _353
REMARK  146  A    between atoms: _353  and  _354
REMARK  147  A    between atoms: _354  and  _355
REMARK  148  A    between atoms: _358  and  _360
REMARK  149  A    between atoms: _360  and  _361
REMARK  150  A    between atoms: _360  and  _363
REMARK  151  A    between atoms: _363  and  _364
REMARK  152  A    between atoms: _367  and  _369
REMARK  153  A    between atoms: _369  and  _370
REMARK  154  A    between atoms: _369  and  _372
REMARK  155  A    between atoms: _375  and  _377
REMARK  156  A    between atoms: _377  and  _378
REMARK  157  A    between atoms: _377  and  _380
REMARK  158  A    between atoms: _380  and  _381
REMARK  159  A    between atoms: _384  and  _386
REMARK  160  A    between atoms: _386  and  _387
REMARK  161  A    between atoms: _386  and  _389
REMARK  162  A    between atoms: _389  and  _390
REMARK  163  A    between atoms: _395  and  _397
REMARK  164  A    between atoms: _397  and  _398
REMARK  165  A    between atoms: _400  and  _402
REMARK  166  A    between atoms: _402  and  _403
REMARK  167  A    between atoms: _402  and  _405
REMARK  168  A    between atoms: _405  and  _406
REMARK  169  A    between atoms: _406  and  _407
REMARK  170  A    between atoms: _409  and  _411
REMARK  171  A    between atoms: _411  and  _412
REMARK  172  A    between atoms: _411  and  _414
REMARK  173  A    between atoms: _417  and  _419
REMARK  174  A    between atoms: _419  and  _420
REMARK  175  A    between atoms: _419  and  _422
REMARK  176  A    between atoms: _422  and  _423
REMARK  177  A    between atoms: _425  and  _427
REMARK  178  A    between atoms: _427  and  _428
REMARK  179  A    between atoms: _427  and  _430
REMARK  180  A    between atoms: _430  and  _431
REMARK  181  A    between atoms: _433  and  _435
REMARK  182  A    between atoms: _435  and  _436
REMARK  183  A    between atoms: _435  and  _438
REMARK  184  A    between atoms: _438  and  _439
REMARK  185  A    between atoms: _439  and  _440
REMARK  186  A    between atoms: _445  and  _447
REMARK  187  A    between atoms: _447  and  _448
REMARK  188  A    between atoms: _451  and  _453
REMARK  189  A    between atoms: _453  and  _454
REMARK  190  A    between atoms: _453  and  _456
REMARK  191  A    between atoms: _456  and  _457
REMARK  192  A    between atoms: _457  and  _458
REMARK  193  A    between atoms: _460  and  _462
REMARK  194  A    between atoms: _462  and  _463
REMARK  195  A    between atoms: _462  and  _465
REMARK  196  A    between atoms: _465  and  _466
REMARK  197  A    between atoms: _471  and  _472
REMARK  198  A    between atoms: _474  and  _476
REMARK  199  A    between atoms: _476  and  _477
REMARK  200  A    between atoms: _476  and  _479
REMARK  201  A    between atoms: _479  and  _480
REMARK  202  A    between atoms: _483  and  _485
REMARK  203  A    between atoms: _485  and  _486
REMARK  204  A    between atoms: _485  and  _488
REMARK  205  A    between atoms: _488  and  _489
REMARK  206  A    between atoms: _491  and  _493
REMARK  207  A    between atoms: _493  and  _494
REMARK  208  A    between atoms: _493  and  _496
REMARK  209  A    between atoms: _496  and  _497
REMARK  210  A    between atoms: _500  and  _502
REMARK  211  A    between atoms: _502  and  _503
REMARK  212  A    between atoms: _502  and  _505
REMARK  213  A    between atoms: _505  and  _506
REMARK  214  A    between atoms: _506  and  _507
REMARK  215  A    between atoms: _509  and  _511
REMARK  216  A    between atoms: _511  and  _512
REMARK  217  A    between atoms: _511  and  _514
REMARK  218  A    between atoms: _514  and  _515
REMARK  219  A    between atoms: _520  and  _521
REMARK  220  A    between atoms: _523  and  _525
REMARK  221  A    between atoms: _525  and  _526
REMARK  222  A    between atoms: _525  and  _528
REMARK  223  A    between atoms: _528  and  _529
REMARK  224  A    between atoms: _529  and  _530
REMARK  225  A    between atoms: _530  and  _531
REMARK  226  A    between atoms: _540  and  _542
REMARK  227  A    between atoms: _542  and  _543
REMARK  228  A    between atoms: _542  and  _545
REMARK  229  A    between atoms: _545  and  _546
REMARK  230  A    between atoms: _548  and  _550
REMARK  231  A    between atoms: _550  and  _551
REMARK  232  A    between atoms: _550  and  _553
REMARK  233  A    between atoms: _553  and  _554
REMARK  234  A    between atoms: _559  and  _560
REMARK  235  A    between atoms: _562  and  _564
REMARK  236  A    between atoms: _564  and  _565
REMARK  237  A    between atoms: _568  and  _570
REMARK  238  A    between atoms: _570  and  _571
REMARK  239  A    between atoms: _574  and  _576
REMARK  240  A    between atoms: _576  and  _577
REMARK  241  A    between atoms: _576  and  _579
REMARK  242  A    between atoms: _579  and  _580
REMARK  243  A    between atoms: _580  and  _581
REMARK  244  A    between atoms: _581  and  _582
REMARK  245  A    between atoms: _591  and  _593
REMARK  246  A    between atoms: _593  and  _594
REMARK  247  A    between atoms: _593  and  _596
REMARK  248  A    between atoms: _599  and  _601
REMARK  249  A    between atoms: _601  and  _602
REMARK  250  A    between atoms: _604  and  _606
REMARK  251  A    between atoms: _606  and  _607
REMARK  252  A    between atoms: _606  and  _609
REMARK  253  A    between atoms: _609  and  _610
REMARK  254  A    between atoms: _613  and  _615
REMARK  255  A    between atoms: _615  and  _616
REMARK  256  A    between atoms: _619  and  _621
REMARK  257  A    between atoms: _621  and  _622
REMARK  258  A    between atoms: _621  and  _624
REMARK  259  A    between atoms: _624  and  _625
REMARK  260  A    between atoms: _628  and  _630
REMARK  261  A    between atoms: _630  and  _631
REMARK  262  A    between atoms: _630  and  _633
REMARK  263  A    between atoms: _633  and  _634
REMARK  264  A    between atoms: _639  and  _640
REMARK  265  A    between atoms: _642  and  _644
REMARK  266  A    between atoms: _644  and  _645
REMARK  267  A    between atoms: _644  and  _647
REMARK  268  A    between atoms: _647  and  _648
REMARK  269  A    between atoms: _648  and  _649
REMARK  270  A    between atoms: _651  and  _653
REMARK  271  A    between atoms: _653  and  _654
REMARK  272  A    between atoms: _653  and  _656
REMARK  273  A    between atoms: _656  and  _657
REMARK  274  A    between atoms: _657  and  _658
REMARK  275  A    between atoms: _661  and  _663
REMARK  276  A    between atoms: _663  and  _664
REMARK  277  A    between atoms: _663  and  _666
REMARK  278  A    between atoms: _666  and  _667
REMARK  279  A    between atoms: _673  and  _675
REMARK  280  A    between atoms: _675  and  _676
REMARK  281  A    between atoms: _675  and  _678
REMARK  282  A    between atoms: _678  and  _679
REMARK  283  A    between atoms: _684  and  _686
REMARK  284  A    between atoms: _686  and  _687
REMARK  285  A    between atoms: _686  and  _689
REMARK  286  A    between atoms: _689  and  _690
REMARK  287  A    between atoms: _700  and  _702
REMARK  288  A    between atoms: _702  and  _703
REMARK  289  A    between atoms: _702  and  _705
REMARK  290  A    between atoms: _708  and  _710
REMARK  291  A    between atoms: _710  and  _711
REMARK  292  A    between atoms: _710  and  _713
REMARK  293  A    between atoms: _713  and  _714
REMARK  294  A    between atoms: _717  and  _719
REMARK  295  A    between atoms: _719  and  _720
REMARK  296  A    between atoms: _719  and  _722
REMARK  297  A    between atoms: _722  and  _723
REMARK  298  A    between atoms: _723  and  _724
REMARK  299  A    between atoms: _726  and  _728
REMARK  300  A    between atoms: _728  and  _729
REMARK  301  A    between atoms: _728  and  _731
REMARK  302  A    between atoms: _731  and  _732
REMARK  303  A    between atoms: _735  and  _737
REMARK  304  A    between atoms: _737  and  _738
REMARK  305  A    between atoms: _737  and  _740
REMARK  306  A    between atoms: _740  and  _741
REMARK  307  A    between atoms: _744  and  _746
REMARK  308  A    between atoms: _746  and  _747
REMARK  309  A    between atoms: _746  and  _749
REMARK  310  A    between atoms: _749  and  _750
REMARK  311  A    between atoms: _753  and  _755
REMARK  312  A    between atoms: _755  and  _756
REMARK  313  A    between atoms: _755  and  _758
REMARK  314  A    between atoms: _758  and  _759
REMARK  315  A    between atoms: _762  and  _764
REMARK  316  A    between atoms: _764  and  _765
REMARK  317  A    between atoms: _767  and  _769
REMARK  318  A    between atoms: _769  and  _770
REMARK  319  A    between atoms: _769  and  _772
REMARK  320  A    between atoms: _772  and  _773
REMARK  321  A    between atoms: _775  and  _777
REMARK  322  A    between atoms: _777  and  _778
REMARK  323  A    between atoms: _777  and  _780
REMARK  324  A    between atoms: _780  and  _781
REMARK  325  A    between atoms: _791  and  _793
REMARK  326  A    between atoms: _793  and  _794
REMARK  327  A    between atoms: _793  and  _796
REMARK  328  A    between atoms: _796  and  _797
REMARK  329  A    between atoms: _799  and  _801
REMARK  330  A    between atoms: _801  and  _802
REMARK  331  A    between atoms: _801  and  _804
REMARK  332  A    between atoms: _804  and  _805
REMARK  333  A    between atoms: _808  and  _810
REMARK  334  A    between atoms: _810  and  _811
REMARK  335  A    between atoms: _814  and  _816
REMARK  336  A    between atoms: _816  and  _817
REMARK  337  A    between atoms: _816  and  _819
REMARK  338  A    between atoms: _819  and  _820
REMARK  339  A    between atoms: _822  and  _824
REMARK  340  A    between atoms: _824  and  _825
REMARK  341  A    between atoms: _824  and  _827
REMARK  342  A    between atoms: _827  and  _828
REMARK  343  A    between atoms: _828  and  _829
REMARK  344  A    between atoms: _832  and  _834
REMARK  345  A    between atoms: _834  and  _835
REMARK  346  A    between atoms: _834  and  _837
REMARK  347  A    between atoms: _837  and  _838
REMARK  348  A    between atoms: _840  and  _842
REMARK  349  A    between atoms: _842  and  _843
REMARK  350  A    between atoms: _842  and  _845
REMARK  351  A    between atoms: _845  and  _846
REMARK  352  A    between atoms: _846  and  _847
REMARK  353  A    between atoms: _852  and  _854
REMARK  354  A    between atoms: _854  and  _855
REMARK  355  A    between atoms: _854  and  _857
REMARK  356  A    between atoms: _857  and  _858
REMARK  357  A    between atoms: _858  and  _859
REMARK  358  A    between atoms: _864  and  _866
REMARK  359  A    between atoms: _866  and  _867
REMARK  360  A    between atoms: _866  and  _869
REMARK  361  A    between atoms: _869  and  _870
REMARK  362  A    between atoms: _873  and  _875
REMARK  363  A    between atoms: _875  and  _876
REMARK  364  A    between atoms: _875  and  _878
REMARK  365  A    between atoms: _878  and  _879
REMARK  366  A    between atoms: _882  and  _884
REMARK  367  A    between atoms: _884  and  _885
REMARK  368  A    between atoms: _884  and  _887
REMARK  369  A    between atoms: _887  and  _888
REMARK  370  A    between atoms: _895  and  _896
REMARK  371  A    between atoms: _901  and  _903
REMARK  372  A    between atoms: _903  and  _904
REMARK  373  A    between atoms: _903  and  _906
REMARK  374  A    between atoms: _906  and  _907
REMARK  375  A    between atoms: _912  and  _913
REMARK  376  A    between atoms: _915  and  _917
REMARK  377  A    between atoms: _917  and  _918
REMARK  378  A    between atoms: _917  and  _920
REMARK  379  A    between atoms: _920  and  _921
REMARK  380  A    between atoms: _926  and  _928
REMARK  381  A    between atoms: _928  and  _929
REMARK  382  A    between atoms: _928  and  _931
REMARK  383  A    between atoms: _931  and  _932
REMARK  384  A    between atoms: _938  and  _940
REMARK  385  A    between atoms: _940  and  _941
REMARK  386  A    between atoms: _940  and  _943
REMARK  387  A    between atoms: _943  and  _944
REMARK  388  A    between atoms: _947  and  _949
REMARK  389  A    between atoms: _949  and  _950
REMARK  390  A    between atoms: _949  and  _952
REMARK  391  A    between atoms: _952  and  _953
REMARK  392  A    between atoms: _958  and  _960
REMARK  393  A    between atoms: _960  and  _961
REMARK  394  A    between atoms: _960  and  _963
REMARK  395  A    between atoms: _963  and  _964
REMARK  396  A    between atoms: _970  and  _972
REMARK  397  A    between atoms: _972  and  _973
REMARK  398  A    between atoms: _972  and  _975
REMARK  399  A    between atoms: _975  and  _976
REMARK  400  A    between atoms: _976  and  _977
REMARK  401  A    between atoms: _979  and  _981
REMARK  402  A    between atoms: _981  and  _982
REMARK  403  A    between atoms: _981  and  _984
REMARK  404  A    between atoms: _984  and  _985
REMARK  405  A    between atoms: _988  and  _990
REMARK  406  A    between atoms: _990  and  _991
REMARK  407  A    between atoms: _990  and  _993
REMARK  408  A    between atoms: _993  and  _994
REMARK  409  A    between atoms: _999  and  _1001
REMARK  410  A    between atoms: _1001  and  _1002
REMARK  411  A    between atoms: _1001  and  _1004
REMARK  412  A    between atoms: _1004  and  _1005
REMARK  413  A    between atoms: _1010  and  _1011
REMARK                            x       y       z     vdW  Elec       q    Type
REMARK                         _______ _______ _______ _____ _____    ______ ____
ROOT
ATOM      1  CA  THR A   1      -9.960   0.191  10.015  0.00  0.00    +0.160 C 
ENDROOT
BRANCH   1   2
ATOM      2  N   THR A   1      -8.720   0.670  10.623  0.00  0.00    -0.237 NA
ATOM      3  H   THR A   1      -8.640   1.675  10.878  0.00  0.00    +0.142 HD
ENDBRANCH   1   2
BRANCH   1   4
ATOM      4  CB  THR A   1     -10.940  -0.358  11.090  0.00  0.00    +0.134 C 
ATOM      5  CG2 THR A   1     -11.235   0.690  12.157  0.00  0.00    +0.034 C 
BRANCH   4   6
ATOM      6  OG1 THR A   1     -12.166  -0.759  10.470  0.00  0.00    -0.383 OA
ATOM      7  HG1 THR A   1     -12.785  -1.107  11.160  0.00  0.00    +0.210 HD
ENDBRANCH   4   6
ENDBRANCH   1   4
BRANCH   1   8
ATOM      8  C   THR A   1     -10.642   1.280   9.187  0.00  0.00    +0.227 C 
ATOM      9  O   THR A   1     -10.388   2.469   9.390  0.00  0.00    -0.287 OA
ENDBRANCH   1   8
TORSDOF 4
REMARK  Name = ../refined-set-2016/3drg/3drg_pocket.pdb
REMARK  413 active torsions:
REMARK  status: ('A' for Active; 'I' for Inactive)
REMARK    1  A    between atoms: _1  and  _3
REMARK    2  A    between atoms: _3  and  _4
REMARK    3  A    between atoms: _3  and  _6
REMARK    4  A    between atoms: _6  and  _7
REMARK    5  A    between atoms: _12  and  _13
REMARK    6  A    between atoms: _15  and  _17
REMARK    7  A    between atoms: _17  and  _18
REMARK    8  A    between atoms: _17  and  _20
REMARK    9  A    between atoms: _20  and  _21
REMARK   10  A    between atoms: _21  and  _22
REMARK   11  A    between atoms: _27  and  _29
REMARK   12  A    between atoms: _29  and  _30
REMARK   13  A    between atoms: _29  and  _32
REMARK   14  A    between atoms: _32  and  _33
REMARK   15  A    between atoms: _35  and  _37
REMARK   16  A    between atoms: _37  and  _38
REMARK   17  A    between atoms: _37  and  _40
REMARK   18  A    between atoms: _40  and  _41
REMARK   19  A    between atoms: _44  and  _46
REMARK   20  A    between atoms: _46  and  _47
REMARK   21  A    between atoms: _46  and  _49
REMARK   22  A    between atoms: _49  and  _50
REMARK   23  A    between atoms: _52  and  _54
REMARK   24  A    between atoms: _54  and  _55
REMARK   25  A    between atoms: _54  and  _57
REMARK   26  A    between atoms: _57  and  _58
REMARK   27  A    between atoms: _61  and  _63
REMARK   28  A    between atoms: _63  and  _64
REMARK   29  A    between atoms: _63  and  _66
REMARK   30  A    between atoms: _66  and  _67
REMARK   31  A    between atoms: _69  and  _71
REMARK   32  A    between atoms: _71  and  _72
REMARK   33  A    between atoms: _74  and  _76
REMARK   34  A    between atoms: _76  and  _77
REMARK   35  A    between atoms: _76  and  _79
REMARK   36  A    between atoms: _79  and  _80
REMARK   37  A    between atoms: _82  and  _84
REMARK   38  A    between atoms: _84  and  _85
REMARK   39  A    between atoms: _84  and  _87
REMARK   40  A    between atoms: _87  and  _88
REMARK   41  A    between atoms: _93  and  _95
REMARK   42  A    between atoms: _95  and  _96
REMARK   43  A    between atoms: _95  and  _98
REMARK   44  A    between atoms: _98  and  _99
REMARK   45  A    between atoms: _102  and  _104
REMARK   46  A    between atoms: _104  and  _105
REMARK   47  A    between atoms: _108  and  _110
REMARK   48  A    between atoms: _110  and  _111
REMARK   49  A    between atoms: _110  and  _113
REMARK   50  A    between atoms: _113  and  _114
REMARK   51  A    between atoms: _117  and  _119
REMARK   52  A    between atoms: _119  and  _120
REMARK   53  A    between atoms: _119  and  _122
REMARK   54  A    between atoms: _122  and  _123
REMARK   55  A    between atoms: _129  and  _131
REMARK   56  A    between atoms: _131  and  _132
REMARK   57  A    between atoms: _135  and  _137
REMARK   58  A    between atoms: _137  and  _138
REMARK   59  A    between atoms: _137  and  _140
REMARK   60  A    between atoms: _140  and  _141
REMARK   61  A    between atoms: _144  and  _146
REMARK   62  A    between atoms: _146  and  _147
REMARK   63  A    between atoms: _146  and  _149
REMARK   64  A    between atoms: _149  and  _150
REMARK   65  A    between atoms: _152  and  _154
REMARK   66  A    between atoms: _154  and  _155
REMARK   67  A    between atoms: _157  and  _159
REMARK   68  A    between atoms: _159  and  _160
REMARK   69  A    between atoms: _162  and  _164
REMARK   70  A    between atoms: _164  and  _165
REMARK   71  A    between atoms: _164  and  _167
REMARK   72  A    between atoms: _167  and  _168
REMARK   73  A    between atoms: _168  and  _169
REMARK   74  A    between atoms: _174  and  _176
REMARK   75  A    between atoms: _176  and  _177
REMARK   76  A    between atoms: _176  and  _179
REMARK   77  A    between atoms: _179  and  _180
REMARK   78  A    between atoms: _183  and  _185
REMARK   79  A    between atoms: _185  and  _186
REMARK   80  A    between atoms: _188  and  _190
REMARK   81  A    between atoms: _190  and  _191
REMARK   82  A    between atoms: _190  and  _193
REMARK   83  A    between atoms: _193  and  _194
REMARK   84  A    between atoms: _197  and  _199
REMARK   85  A    between atoms: _199  and  _200
REMARK   86  A    between atoms: _199  and  _202
REMARK   87  A    between atoms: _202  and  _203
REMARK   88  A    between atoms: _209  and  _211
REMARK   89  A    between atoms: _211  and  _212
REMARK   90  A    between atoms: _211  and  _214
REMARK   91  A    between atoms: _214  and  _215
REMARK   92  A    between atoms: _218  and  _220
REMARK   93  A    between atoms: _220  and  _221
REMARK   94  A    between atoms: _220  and  _223
REMARK   95  A    between atoms: _223  and  _224
REMARK   96  A    between atoms: _230  and  _232
REMARK   97  A    between atoms: _232  and  _233
REMARK   98  A    between atoms: _232  and  _235
REMARK   99  A    between atoms: _235  and  _236
REMARK  100  A    between atoms: _242  and  _244
REMARK  101  A    between atoms: _244  and  _245
REMARK  102  A    between atoms: _244  and  _247
REMARK  103  A    between atoms: _247  and  _248
REMARK  104  A    between atoms: _251  and  _253
REMARK  105  A    between atoms: _253  and  _254
REMARK  106  A    between atoms: _253  and  _256
REMARK  107  A    between atoms: _256  and  _257
REMARK  108  A    between atoms: _260  and  _262
REMARK  109  A    between atoms: _262  and  _263
REMARK  110  A    between atoms: _262  and  _265
REMARK  111  A    between atoms: _265  and  _266
REMARK  112  A    between atoms: _266  and  _267
REMARK  113  A    between atoms: _267  and  _268
REMARK  114  A    between atoms: _277  and  _279
REMARK  115  A    between atoms: _279  and  _280
REMARK  116  A    between atoms: _279  and  _282
REMARK  117  A    between atoms: _282  and  _283
REMARK  118  A    between atoms: _286  and  _288
REMARK  119  A    between atoms: _288  and  _289
REMARK  120  A    between atoms: _288  and  _291
REMARK  121  A    between atoms: _291  and  _292
REMARK  122  A    between atoms: _292  and  _293
REMARK  123  A    between atoms: _298  and  _300
REMARK  124  A    between atoms: _300  and  _301
REMARK  125  A    between atoms: _300  and  _303
REMARK  126  A    between atoms: _303  and  _304
REMARK  127  A    between atoms: _306  and  _308
REMARK  128  A    between atoms: _308  and  _309
REMARK  129  A    between atoms: _311  and  _313
REMARK  130  A    between atoms: _313  and  _314
REMARK  131  A    between atoms: _313  and  _316
REMARK  132  A    between atoms: _316  and  _317
REMARK  133  A    between atoms: _322  and  _324
REMARK  134  A    between atoms: _324  and  _325
REMARK  135  A    between atoms: _327  and  _329
REMARK  136  A    between atoms: _329  and  _330
REMARK  137  A    between atoms: _329  and  _332
REMARK  138  A    between atoms: _332  and  _333
REMARK  139  A    between atoms: _339  and  _341
REMARK  140  A    between atoms: _341  and  _342
REMARK  141  A    between atoms: _341  and  _344
REMARK  142  A    between atoms: _344  and  _345
REMARK  143  A    between atoms: _348  and  _350
REMARK  144  A    between atoms: _350  and  _351
REMARK  145  A    between atoms: _350  and  _353
REMARK  146  A    between atoms: _353  and  _354
REMARK  147  A    between atoms: _354  and  _355
REMARK  148  A    between atoms: _358  and  _360
REMARK  149  A    between atoms: _360  and  _361
REMARK  150  A    between atoms: _360  and  _363
REMARK  151  A    between atoms: _363  and  _364
REMARK  152  A    between atoms: _367  and  _369
REMARK  153  A    between atoms: _369  and  _370
REMARK  154  A    between atoms: _369  and  _372
REMARK  155  A    between atoms: _375  and  _377
REMARK  156  A    between atoms: _377  and  _378
REMARK  157  A    between atoms: _377  and  _380
REMARK  158  A    between atoms: _380  and  _381
REMARK  159  A    between atoms: _384  and  _386
REMARK  160  A    between atoms: _386  and  _387
REMARK  161  A    between atoms: _386  and  _389
REMARK  162  A    between atoms: _389  and  _390
REMARK  163  A    between atoms: _395  and  _397
REMARK  164  A    between atoms: _397  and  _398
REMARK  165  A    between atoms: _400  and  _402
REMARK  166  A    between atoms: _402  and  _403
REMARK  167  A    between atoms: _402  and  _405
REMARK  168  A    between atoms: _405  and  _406
REMARK  169  A    between atoms: _406  and  _407
REMARK  170  A    between atoms: _409  and  _411
REMARK  171  A    between atoms: _411  and  _412
REMARK  172  A    between atoms: _411  and  _414
REMARK  173  A    between atoms: _417  and  _419
REMARK  174  A    between atoms: _419  and  _420
REMARK  175  A    between atoms: _419  and  _422
REMARK  176  A    between atoms: _422  and  _423
REMARK  177  A    between atoms: _425  and  _427
REMARK  178  A    between atoms: _427  and  _428
REMARK  179  A    between atoms: _427  and  _430
REMARK  180  A    between atoms: _430  and  _431
REMARK  181  A    between atoms: _433  and  _435
REMARK  182  A    between atoms: _435  and  _436
REMARK  183  A    between atoms: _435  and  _438
REMARK  184  A    between atoms: _438  and  _439
REMARK  185  A    between atoms: _439  and  _440
REMARK  186  A    between atoms: _445  and  _447
REMARK  187  A    between atoms: _447  and  _448
REMARK  188  A    between atoms: _451  and  _453
REMARK  189  A    between atoms: _453  and  _454
REMARK  190  A    between atoms: _453  and  _456
REMARK  191  A    between atoms: _456  and  _457
REMARK  192  A    between atoms: _457  and  _458
REMARK  193  A    between atoms: _460  and  _462
REMARK  194  A    between atoms: _462  and  _463
REMARK  195  A    between atoms: _462  and  _465
REMARK  196  A    between atoms: _465  and  _466
REMARK  197  A    between atoms: _471  and  _472
REMARK  198  A    between atoms: _474  and  _476
REMARK  199  A    between atoms: _476  and  _477
REMARK  200  A    between atoms: _476  and  _479
REMARK  201  A    between atoms: _479  and  _480
REMARK  202  A    between atoms: _483  and  _485
REMARK  203  A    between atoms: _485  and  _486
REMARK  204  A    between atoms: _485  and  _488
REMARK  205  A    between atoms: _488  and  _489
REMARK  206  A    between atoms: _491  and  _493
REMARK  207  A    between atoms: _493  and  _494
REMARK  208  A    between atoms: _493  and  _496
REMARK  209  A    between atoms: _496  and  _497
REMARK  210  A    between atoms: _500  and  _502
REMARK  211  A    between atoms: _502  and  _503
REMARK  212  A    between atoms: _502  and  _505
REMARK  213  A    between atoms: _505  and  _506
REMARK  214  A    between atoms: _506  and  _507
REMARK  215  A    between atoms: _509  and  _511
REMARK  216  A    between atoms: _511  and  _512
REMARK  217  A    between atoms: _511  and  _514
REMARK  218  A    between atoms: _514  and  _515
REMARK  219  A    between atoms: _520  and  _521
REMARK  220  A    between atoms: _523  and  _525
REMARK  221  A    between atoms: _525  and  _526
REMARK  222  A    between atoms: _525  and  _528
REMARK  223  A    between atoms: _528  and  _529
REMARK  224  A    between atoms: _529  and  _530
REMARK  225  A    between atoms: _530  and  _531
REMARK  226  A    between atoms: _540  and  _542
REMARK  227  A    between atoms: _542  and  _543
REMARK  228  A    between atoms: _542  and  _545
REMARK  229  A    between atoms: _545  and  _546
REMARK  230  A    between atoms: _548  and  _550
REMARK  231  A    between atoms: _550  and  _551
REMARK  232  A    between atoms: _550  and  _553
REMARK  233  A    between atoms: _553  and  _554
REMARK  234  A    between atoms: _559  and  _560
REMARK  235  A    between atoms: _562  and  _564
REMARK  236  A    between atoms: _564  and  _565
REMARK  237  A    between atoms: _568  and  _570
REMARK  238  A    between atoms: _570  and  _571
REMARK  239  A    between atoms: _574  and  _576
REMARK  240  A    between atoms: _576  and  _577
REMARK  241  A    between atoms: _576  and  _579
REMARK  242  A    between atoms: _579  and  _580
REMARK  243  A    between atoms: _580  and  _581
REMARK  244  A    between atoms: _581  and  _582
REMARK  245  A    between atoms: _591  and  _593
REMARK  246  A    between atoms: _593  and  _594
REMARK  247  A    between atoms: _593  and  _596
REMARK  248  A    between atoms: _599  and  _601
REMARK  249  A    between atoms: _601  and  _602
REMARK  250  A    between atoms: _604  and  _606
REMARK  251  A    between atoms: _606  and  _607
REMARK  252  A    between atoms: _606  and  _609
REMARK  253  A    between atoms: _609  and  _610
REMARK  254  A    between atoms: _613  and  _615
REMARK  255  A    between atoms: _615  and  _616
REMARK  256  A    between atoms: _619  and  _621
REMARK  257  A    between atoms: _621  and  _622
REMARK  258  A    between atoms: _621  and  _624
REMARK  259  A    between atoms: _624  and  _625
REMARK  260  A    between atoms: _628  and  _630
REMARK  261  A    between atoms: _630  and  _631
REMARK  262  A    between atoms: _630  and  _633
REMARK  263  A    between atoms: _633  and  _634
REMARK  264  A    between atoms: _639  and  _640
REMARK  265  A    between atoms: _642  and  _644
REMARK  266  A    between atoms: _644  and  _645
REMARK  267  A    between atoms: _644  and  _647
REMARK  268  A    between atoms: _647  and  _648
REMARK  269  A    between atoms: _648  and  _649
REMARK  270  A    between atoms: _651  and  _653
REMARK  271  A    between atoms: _653  and  _654
REMARK  272  A    between atoms: _653  and  _656
REMARK  273  A    between atoms: _656  and  _657
REMARK  274  A    between atoms: _657  and  _658
REMARK  275  A    between atoms: _661  and  _663
REMARK  276  A    between atoms: _663  and  _664
REMARK  277  A    between atoms: _663  and  _666
REMARK  278  A    between atoms: _666  and  _667
REMARK  279  A    between atoms: _673  and  _675
REMARK  280  A    between atoms: _675  and  _676
REMARK  281  A    between atoms: _675  and  _678
REMARK  282  A    between atoms: _678  and  _679
REMARK  283  A    between atoms: _684  and  _686
REMARK  284  A    between atoms: _686  and  _687
REMARK  285  A    between atoms: _686  and  _689
REMARK  286  A    between atoms: _689  and  _690
REMARK  287  A    between atoms: _700  and  _702
REMARK  288  A    between atoms: _702  and  _703
REMARK  289  A    between atoms: _702  and  _705
REMARK  290  A    between atoms: _708  and  _710
REMARK  291  A    between atoms: _710  and  _711
REMARK  292  A    between atoms: _710  and  _713
REMARK  293  A    between atoms: _713  and  _714
REMARK  294  A    between atoms: _717  and  _719
REMARK  295  A    between atoms: _719  and  _720
REMARK  296  A    between atoms: _719  and  _722
REMARK  297  A    between atoms: _722  and  _723
REMARK  298  A    between atoms: _723  and  _724
REMARK  299  A    between atoms: _726  and  _728
REMARK  300  A    between atoms: _728  and  _729
REMARK  301  A    between atoms: _728  and  _731
REMARK  302  A    between atoms: _731  and  _732
REMARK  303  A    between atoms: _735  and  _737
REMARK  304  A    between atoms: _737  and  _738
REMARK  305  A    between atoms: _737  and  _740
REMARK  306  A    between atoms: _740  and  _741
REMARK  307  A    between atoms: _744  and  _746
REMARK  308  A    between atoms: _746  and  _747
REMARK  309  A    between atoms: _746  and  _749
REMARK  310  A    between atoms: _749  and  _750
REMARK  311  A    between atoms: _753  and  _755
REMARK  312  A    between atoms: _755  and  _756
REMARK  313  A    between atoms: _755  and  _758
REMARK  314  A    between atoms: _758  and  _759
REMARK  315  A    between atoms: _762  and  _764
REMARK  316  A    between atoms: _764  and  _765
REMARK  317  A    between atoms: _767  and  _769
REMARK  318  A    between atoms: _769  and  _770
REMARK  319  A    between atoms: _769  and  _772
REMARK  320  A    between atoms: _772  and  _773
REMARK  321  A    between atoms: _775  and  _777
REMARK  322  A    between atoms: _777  and  _778
REMARK  323  A    between atoms: _777  and  _780
REMARK  324  A    between atoms: _780  and  _781
REMARK  325  A    between atoms: _791  and  _793
REMARK  326  A    between atoms: _793  and  _794
REMARK  327  A    between atoms: _793  and  _796
REMARK  328  A    between atoms: _796  and  _797
REMARK  329  A    between atoms: _799  and  _801
REMARK  330  A    between atoms: _801  and  _802
REMARK  331  A    between atoms: _801  and  _804
REMARK  332  A    between atoms: _804  and  _805
REMARK  333  A    between atoms: _808  and  _810
REMARK  334  A    between atoms: _810  and  _811
REMARK  335  A    between atoms: _814  and  _816
REMARK  336  A    between atoms: _816  and  _817
REMARK  337  A    between atoms: _816  and  _819
REMARK  338  A    between atoms: _819  and  _820
REMARK  339  A    between atoms: _822  and  _824
REMARK  340  A    between atoms: _824  and  _825
REMARK  341  A    between atoms: _824  and  _827
REMARK  342  A    between atoms: _827  and  _828
REMARK  343  A    between atoms: _828  and  _829
REMARK  344  A    between atoms: _832  and  _834
REMARK  345  A    between atoms: _834  and  _835
REMARK  346  A    between atoms: _834  and  _837
REMARK  347  A    between atoms: _837  and  _838
REMARK  348  A    between atoms: _840  and  _842
REMARK  349  A    between atoms: _842  and  _843
REMARK  350  A    between atoms: _842  and  _845
REMARK  351  A    between atoms: _845  and  _846
REMARK  352  A    between atoms: _846  and  _847
REMARK  353  A    between atoms: _852  and  _854
REMARK  354  A    between atoms: _854  and  _855
REMARK  355  A    between atoms: _854  and  _857
REMARK  356  A    between atoms: _857  and  _858
REMARK  357  A    between atoms: _858  and  _859
REMARK  358  A    between atoms: _864  and  _866
REMARK  359  A    between atoms: _866  and  _867
REMARK  360  A    between atoms: _866  and  _869
REMARK  361  A    between atoms: _869  and  _870
REMARK  362  A    between atoms: _873  and  _875
REMARK  363  A    between atoms: _875  and  _876
REMARK  364  A    between atoms: _875  and  _878
REMARK  365  A    between atoms: _878  and  _879
REMARK  366  A    between atoms: _882  and  _884
REMARK  367  A    between atoms: _884  and  _885
REMARK  368  A    between atoms: _884  and  _887
REMARK  369  A    between atoms: _887  and  _888
REMARK  370  A    between atoms: _895  and  _896
REMARK  371  A    between atoms: _901  and  _903
REMARK  372  A    between atoms: _903  and  _904
REMARK  373  A    between atoms: _903  and  _906
REMARK  374  A    between atoms: _906  and  _907
REMARK  375  A    between atoms: _912  and  _913
REMARK  376  A    between atoms: _915  and  _917
REMARK  377  A    between atoms: _917  and  _918
REMARK  378  A    between atoms: _917  and  _920
REMARK  379  A    between atoms: _920  and  _921
REMARK  380  A    between atoms: _926  and  _928
REMARK  381  A    between atoms: _928  and  _929
REMARK  382  A    between atoms: _928  and  _931
REMARK  383  A    between atoms: _931  and  _932
REMARK  384  A    between atoms: _938  and  _940
REMARK  385  A    between atoms: _940  and  _941
REMARK  386  A    between atoms: _940  and  _943
REMARK  387  A    between atoms: _943  and  _944
REMARK  388  A    between atoms: _947  and  _949
REMARK  389  A    between atoms: _949  and  _950
REMARK  390  A    between atoms: _949  and  _952
REMARK  391  A    between atoms: _952  and  _953
REMARK  392  A    between atoms: _958  and  _960
REMARK  393  A    between atoms: _960  and  _961
REMARK  394  A    between atoms: _960  and  _963
REMARK  395  A    between atoms: _963  and  _964
REMARK  396  A    between atoms: _970  and  _972
REMARK  397  A    between atoms: _972  and  _973
REMARK  398  A    between atoms: _972  and  _975
REMARK  399  A    between atoms: _975  and  _976
REMARK  400  A    between atoms: _976  and  _977
REMARK  401  A    between atoms: _979  and  _981
REMARK  402  A    between atoms: _981  and  _982
REMARK  403  A    between atoms: _981  and  _984
REMARK  404  A    between atoms: _984  and  _985
REMARK  405  A    between atoms: _988  and  _990
REMARK  406  A    between atoms: _990  and  _991
REMARK  407  A    between atoms: _990  and  _993
REMARK  408  A    between atoms: _993  and  _994
REMARK  409  A    between atoms: _999  and  _1001
REMARK  410  A    between atoms: _1001  and  _1002
REMARK  411  A    between atoms: _1001  and  _1004
REMARK  412  A    between atoms: _1004  and  _1005
REMARK  413  A    between atoms: _1010  and  _1011
REMARK                            x       y       z     vdW  Elec       q    Type
REMARK                         _______ _______ _______ _____ _____    ______ ____
ROOT
ATOM      1  C   SER A   2     -19.595  -0.568  21.888  0.00  0.00    +0.243 C 
ATOM      2  O   SER A   2     -20.329  -1.499  21.550  0.00  0.00    -0.273 OA
ATOM      3  N   GLY A   3     -18.353  -0.420  21.433  0.00  0.00    -0.295 N 
ATOM      4  H   GLY A   3     -17.787   0.385  21.769  0.00  0.00    +0.150 HD
ENDROOT
BRANCH   3   5
ATOM      5  CA  GLY A   3     -17.760  -1.351  20.478  0.00  0.00    +0.176 C 
BRANCH   5   6
ATOM      6  C   GLY A   3     -18.098  -1.058  19.027  0.00  0.00    +0.243 C 
ATOM      7  N   ASN A   4     -18.650   0.127  18.767  0.00  0.00    -0.297 N 
ATOM      8  H   ASN A   4     -18.845   0.778  19.555  0.00  0.00    +0.150 HD
ATOM      9  O   GLY A   3     -17.861  -1.895  18.153  0.00  0.00    -0.273 OA
BRANCH   7  10
ATOM     10  CA  ASN A   4     -18.990   0.539  17.401  0.00  0.00    +0.158 C 
BRANCH  10  11
ATOM     11  C   ASN A   4     -17.771   0.681  16.490  0.00  0.00    +0.241 C 
ATOM     12  N   GLY A   5     -16.656   1.131  17.064  0.00  0.00    -0.296 N 
ATOM     13  H   GLY A   5     -16.690   1.418  18.063  0.00  0.00    +0.150 HD
ATOM     14  O   ASN A   4     -17.848   0.393  15.295  0.00  0.00    -0.273 OA
BRANCH  12  15
ATOM     15  CA  GLY A   5     -15.388   1.237  16.346  0.00  0.00    +0.163 C 
BRANCH  15  16
ATOM     16  C   GLY A   5     -15.214   2.501  15.523  0.00  0.00    +0.229 C 
ATOM     17  O   GLY A   5     -14.124   2.763  15.014  0.00  0.00    -0.286 OA
ENDBRANCH  15  16
ENDBRANCH  12  15
ENDBRANCH  10  11
BRANCH  10  18
ATOM     18  CB  ASN A   4     -19.840   1.818  17.383  0.00  0.00    +0.114 C 
BRANCH  18  19
ATOM     19  CG  ASN A   4     -19.161   2.997  18.061  0.00  0.00    +0.222 C 
ATOM     20  ND2 ASN A   4     -19.221   3.037  19.389  0.00  0.00    -0.329 N 
ATOM     21 HD21 ASN A   4     -19.710   2.282  19.910  0.00  0.00    +0.145 HD
ATOM     22 HD22 ASN A   4     -18.779   3.823  19.906  0.00  0.00    +0.145 HD
ATOM     23  OD1 ASN A   4     -18.595   3.864  17.396  0.00  0.00    -0.275 OA
ENDBRANCH  18  19
ENDBRANCH  10  18
ENDBRANCH   7  10
ENDBRANCH   5   6
ENDBRANCH   3   5
BRANCH   1  24
ATOM     24  CA  SER A   2     -20.088   0.500  22.866  0.00  0.00    +0.178 C 
BRANCH  24  26
ATOM     25  C   GLN A   1     -21.992   1.345  21.571  0.00  0.00    +0.238 C 
ATOM     26  N   SER A   2     -21.511   0.777  22.675  0.00  0.00    -0.295 N 
ATOM     27  H   SER A   2     -22.175   0.520  23.433  0.00  0.00    +0.150 HD
ATOM     28  O   GLN A   1     -21.278   1.729  20.642  0.00  0.00    -0.274 OA
BRANCH  25  29
ATOM     29  CA  GLN A   1     -23.512   1.497  21.505  0.00  0.00    +0.145 C 
BRANCH  29  30
ATOM     30  N   GLN A   1     -23.904   2.754  20.878  0.00  0.00    -0.238 NA
ATOM     31  H   GLN A   1     -23.626   2.925  19.891  0.00  0.00    +0.142 HD
ENDBRANCH  29  30
BRANCH  29  32
ATOM     32  CB  GLN A   1     -24.126   0.332  20.728  0.00  0.00    +0.036 C 
BRANCH  32  33
ATOM     33  CG  GLN A   1     -24.049  -1.017  21.422  0.00  0.00    +0.087 C 
BRANCH  33  34
ATOM     34  CD  GLN A   1     -24.901  -2.065  20.739  0.00  0.00    +0.219 C 
ATOM     35  NE2 GLN A   1     -24.357  -3.262  20.591  0.00  0.00    -0.329 N 
ATOM     36 HE21 GLN A   1     -23.391  -3.440  20.933  0.00  0.00    +0.145 HD
ATOM     37 HE22 GLN A   1     -24.895  -4.025  20.133  0.00  0.00    +0.145 HD
ATOM     38  OE1 GLN A   1     -26.040  -1.802  20.352  0.00  0.00    -0.275 OA
ENDBRANCH  33  34
ENDBRANCH  32  33
ENDBRANCH  29  32
ENDBRANCH  25  29
ENDBRANCH  24  26
BRANCH  24  39
ATOM     39  CB  SER A   2     -19.823   0.063  24.308  0.00  0.00    +0.166 C 
BRANCH  39  40
ATOM     40  OG  SER A   2     -18.437  -0.055  24.561  0.00  0.00    -0.380 OA
ATOM     41  H   SER A   2     -18.000   0.820  24.411  0.00  0.00    +0.211 HD
ENDBRANCH  39  40
ENDBRANCH  24  39
ENDBRANCH   1  24
TORSDOF 17
REMARK  Name = ../refined-set-2016/3drg/3drg_pocket.pdb
REMARK  413 active torsions:
REMARK  status: ('A' for Active; 'I' for Inactive)
REMARK    1  A    between atoms: _1  and  _3
REMARK    2  A    between atoms: _3  and  _4
REMARK    3  A    between atoms: _3  and  _6
REMARK    4  A    between atoms: _6  and  _7
REMARK    5  A    between atoms: _12  and  _13
REMARK    6  A    between atoms: _15  and  _17
REMARK    7  A    between atoms: _17  and  _18
REMARK    8  A    between atoms: _17  and  _20
REMARK    9  A    between atoms: _20  and  _21
REMARK   10  A    between atoms: _21  and  _22
REMARK   11  A    between atoms: _27  and  _29
REMARK   12  A    between atoms: _29  and  _30
REMARK   13  A    between atoms: _29  and  _32
REMARK   14  A    between atoms: _32  and  _33
REMARK   15  A    between atoms: _35  and  _37
REMARK   16  A    between atoms: _37  and  _38
REMARK   17  A    between atoms: _37  and  _40
REMARK   18  A    between atoms: _40  and  _41
REMARK   19  A    between atoms: _44  and  _46
REMARK   20  A    between atoms: _46  and  _47
REMARK   21  A    between atoms: _46  and  _49
REMARK   22  A    between atoms: _49  and  _50
REMARK   23  A    between atoms: _52  and  _54
REMARK   24  A    between atoms: _54  and  _55
REMARK   25  A    between atoms: _54  and  _57
REMARK   26  A    between atoms: _57  and  _58
REMARK   27  A    between atoms: _61  and  _63
REMARK   28  A    between atoms: _63  and  _64
REMARK   29  A    between atoms: _63  and  _66
REMARK   30  A    between atoms: _66  and  _67
REMARK   31  A    between atoms: _69  and  _71
REMARK   32  A    between atoms: _71  and  _72
REMARK   33  A    between atoms: _74  and  _76
REMARK   34  A    between atoms: _76  and  _77
REMARK   35  A    between atoms: _76  and  _79
REMARK   36  A    between atoms: _79  and  _80
REMARK   37  A    between atoms: _82  and  _84
REMARK   38  A    between atoms: _84  and  _85
REMARK   39  A    between atoms: _84  and  _87
REMARK   40  A    between atoms: _87  and  _88
REMARK   41  A    between atoms: _93  and  _95
REMARK   42  A    between atoms: _95  and  _96
REMARK   43  A    between atoms: _95  and  _98
REMARK   44  A    between atoms: _98  and  _99
REMARK   45  A    between atoms: _102  and  _104
REMARK   46  A    between atoms: _104  and  _105
REMARK   47  A    between atoms: _108  and  _110
REMARK   48  A    between atoms: _110  and  _111
REMARK   49  A    between atoms: _110  and  _113
REMARK   50  A    between atoms: _113  and  _114
REMARK   51  A    between atoms: _117  and  _119
REMARK   52  A    between atoms: _119  and  _120
REMARK   53  A    between atoms: _119  and  _122
REMARK   54  A    between atoms: _122  and  _123
REMARK   55  A    between atoms: _129  and  _131
REMARK   56  A    between atoms: _131  and  _132
REMARK   57  A    between atoms: _135  and  _137
REMARK   58  A    between atoms: _137  and  _138
REMARK   59  A    between atoms: _137  and  _140
REMARK   60  A    between atoms: _140  and  _141
REMARK   61  A    between atoms: _144  and  _146
REMARK   62  A    between atoms: _146  and  _147
REMARK   63  A    between atoms: _146  and  _149
REMARK   64  A    between atoms: _149  and  _150
REMARK   65  A    between atoms: _152  and  _154
REMARK   66  A    between atoms: _154  and  _155
REMARK   67  A    between atoms: _157  and  _159
REMARK   68  A    between atoms: _159  and  _160
REMARK   69  A    between atoms: _162  and  _164
REMARK   70  A    between atoms: _164  and  _165
REMARK   71  A    between atoms: _164  and  _167
REMARK   72  A    between atoms: _167  and  _168
REMARK   73  A    between atoms: _168  and  _169
REMARK   74  A    between atoms: _174  and  _176
REMARK   75  A    between atoms: _176  and  _177
REMARK   76  A    between atoms: _176  and  _179
REMARK   77  A    between atoms: _179  and  _180
REMARK   78  A    between atoms: _183  and  _185
REMARK   79  A    between atoms: _185  and  _186
REMARK   80  A    between atoms: _188  and  _190
REMARK   81  A    between atoms: _190  and  _191
REMARK   82  A    between atoms: _190  and  _193
REMARK   83  A    between atoms: _193  and  _194
REMARK   84  A    between atoms: _197  and  _199
REMARK   85  A    between atoms: _199  and  _200
REMARK   86  A    between atoms: _199  and  _202
REMARK   87  A    between atoms: _202  and  _203
REMARK   88  A    between atoms: _209  and  _211
REMARK   89  A    between atoms: _211  and  _212
REMARK   90  A    between atoms: _211  and  _214
REMARK   91  A    between atoms: _214  and  _215
REMARK   92  A    between atoms: _218  and  _220
REMARK   93  A    between atoms: _220  and  _221
REMARK   94  A    between atoms: _220  and  _223
REMARK   95  A    between atoms: _223  and  _224
REMARK   96  A    between atoms: _230  and  _232
REMARK   97  A    between atoms: _232  and  _233
REMARK   98  A    between atoms: _232  and  _235
REMARK   99  A    between atoms: _235  and  _236
REMARK  100  A    between atoms: _242  and  _244
REMARK  101  A    between atoms: _244  and  _245
REMARK  102  A    between atoms: _244  and  _247
REMARK  103  A    between atoms: _247  and  _248
REMARK  104  A    between atoms: _251  and  _253
REMARK  105  A    between atoms: _253  and  _254
REMARK  106  A    between atoms: _253  and  _256
REMARK  107  A    between atoms: _256  and  _257
REMARK  108  A    between atoms: _260  and  _262
REMARK  109  A    between atoms: _262  and  _263
REMARK  110  A    between atoms: _262  and  _265
REMARK  111  A    between atoms: _265  and  _266
REMARK  112  A    between atoms: _266  and  _267
REMARK  113  A    between atoms: _267  and  _268
REMARK  114  A    between atoms: _277  and  _279
REMARK  115  A    between atoms: _279  and  _280
REMARK  116  A    between atoms: _279  and  _282
REMARK  117  A    between atoms: _282  and  _283
REMARK  118  A    between atoms: _286  and  _288
REMARK  119  A    between atoms: _288  and  _289
REMARK  120  A    between atoms: _288  and  _291
REMARK  121  A    between atoms: _291  and  _292
REMARK  122  A    between atoms: _292  and  _293
REMARK  123  A    between atoms: _298  and  _300
REMARK  124  A    between atoms: _300  and  _301
REMARK  125  A    between atoms: _300  and  _303
REMARK  126  A    between atoms: _303  and  _304
REMARK  127  A    between atoms: _306  and  _308
REMARK  128  A    between atoms: _308  and  _309
REMARK  129  A    between atoms: _311  and  _313
REMARK  130  A    between atoms: _313  and  _314
REMARK  131  A    between atoms: _313  and  _316
REMARK  132  A    between atoms: _316  and  _317
REMARK  133  A    between atoms: _322  and  _324
REMARK  134  A    between atoms: _324  and  _325
REMARK  135  A    between atoms: _327  and  _329
REMARK  136  A    between atoms: _329  and  _330
REMARK  137  A    between atoms: _329  and  _332
REMARK  138  A    between atoms: _332  and  _333
REMARK  139  A    between atoms: _339  and  _341
REMARK  140  A    between atoms: _341  and  _342
REMARK  141  A    between atoms: _341  and  _344
REMARK  142  A    between atoms: _344  and  _345
REMARK  143  A    between atoms: _348  and  _350
REMARK  144  A    between atoms: _350  and  _351
REMARK  145  A    between atoms: _350  and  _353
REMARK  146  A    between atoms: _353  and  _354
REMARK  147  A    between atoms: _354  and  _355
REMARK  148  A    between atoms: _358  and  _360
REMARK  149  A    between atoms: _360  and  _361
REMARK  150  A    between atoms: _360  and  _363
REMARK  151  A    between atoms: _363  and  _364
REMARK  152  A    between atoms: _367  and  _369
REMARK  153  A    between atoms: _369  and  _370
REMARK  154  A    between atoms: _369  and  _372
REMARK  155  A    between atoms: _375  and  _377
REMARK  156  A    between atoms: _377  and  _378
REMARK  157  A    between atoms: _377  and  _380
REMARK  158  A    between atoms: _380  and  _381
REMARK  159  A    between atoms: _384  and  _386
REMARK  160  A    between atoms: _386  and  _387
REMARK  161  A    between atoms: _386  and  _389
REMARK  162  A    between atoms: _389  and  _390
REMARK  163  A    between atoms: _395  and  _397
REMARK  164  A    between atoms: _397  and  _398
REMARK  165  A    between atoms: _400  and  _402
REMARK  166  A    between atoms: _402  and  _403
REMARK  167  A    between atoms: _402  and  _405
REMARK  168  A    between atoms: _405  and  _406
REMARK  169  A    between atoms: _406  and  _407
REMARK  170  A    between atoms: _409  and  _411
REMARK  171  A    between atoms: _411  and  _412
REMARK  172  A    between atoms: _411  and  _414
REMARK  173  A    between atoms: _417  and  _419
REMARK  174  A    between atoms: _419  and  _420
REMARK  175  A    between atoms: _419  and  _422
REMARK  176  A    between atoms: _422  and  _423
REMARK  177  A    between atoms: _425  and  _427
REMARK  178  A    between atoms: _427  and  _428
REMARK  179  A    between atoms: _427  and  _430
REMARK  180  A    between atoms: _430  and  _431
REMARK  181  A    between atoms: _433  and  _435
REMARK  182  A    between atoms: _435  and  _436
REMARK  183  A    between atoms: _435  and  _438
REMARK  184  A    between atoms: _438  and  _439
REMARK  185  A    between atoms: _439  and  _440
REMARK  186  A    between atoms: _445  and  _447
REMARK  187  A    between atoms: _447  and  _448
REMARK  188  A    between atoms: _451  and  _453
REMARK  189  A    between atoms: _453  and  _454
REMARK  190  A    between atoms: _453  and  _456
REMARK  191  A    between atoms: _456  and  _457
REMARK  192  A    between atoms: _457  and  _458
REMARK  193  A    between atoms: _460  and  _462
REMARK  194  A    between atoms: _462  and  _463
REMARK  195  A    between atoms: _462  and  _465
REMARK  196  A    between atoms: _465  and  _466
REMARK  197  A    between atoms: _471  and  _472
REMARK  198  A    between atoms: _474  and  _476
REMARK  199  A    between atoms: _476  and  _477
REMARK  200  A    between atoms: _476  and  _479
REMARK  201  A    between atoms: _479  and  _480
REMARK  202  A    between atoms: _483  and  _485
REMARK  203  A    between atoms: _485  and  _486
REMARK  204  A    between atoms: _485  and  _488
REMARK  205  A    between atoms: _488  and  _489
REMARK  206  A    between atoms: _491  and  _493
REMARK  207  A    between atoms: _493  and  _494
REMARK  208  A    between atoms: _493  and  _496
REMARK  209  A    between atoms: _496  and  _497
REMARK  210  A    between atoms: _500  and  _502
REMARK  211  A    between atoms: _502  and  _503
REMARK  212  A    between atoms: _502  and  _505
REMARK  213  A    between atoms: _505  and  _506
REMARK  214  A    between atoms: _506  and  _507
REMARK  215  A    between atoms: _509  and  _511
REMARK  216  A    between atoms: _511  and  _512
REMARK  217  A    between atoms: _511  and  _514
REMARK  218  A    between atoms: _514  and  _515
REMARK  219  A    between atoms: _520  and  _521
REMARK  220  A    between atoms: _523  and  _525
REMARK  221  A    between atoms: _525  and  _526
REMARK  222  A    between atoms: _525  and  _528
REMARK  223  A    between atoms: _528  and  _529
REMARK  224  A    between atoms: _529  and  _530
REMARK  225  A    between atoms: _530  and  _531
REMARK  226  A    between atoms: _540  and  _542
REMARK  227  A    between atoms: _542  and  _543
REMARK  228  A    between atoms: _542  and  _545
REMARK  229  A    between atoms: _545  and  _546
REMARK  230  A    between atoms: _548  and  _550
REMARK  231  A    between atoms: _550  and  _551
REMARK  232  A    between atoms: _550  and  _553
REMARK  233  A    between atoms: _553  and  _554
REMARK  234  A    between atoms: _559  and  _560
REMARK  235  A    between atoms: _562  and  _564
REMARK  236  A    between atoms: _564  and  _565
REMARK  237  A    between atoms: _568  and  _570
REMARK  238  A    between atoms: _570  and  _571
REMARK  239  A    between atoms: _574  and  _576
REMARK  240  A    between atoms: _576  and  _577
REMARK  241  A    between atoms: _576  and  _579
REMARK  242  A    between atoms: _579  and  _580
REMARK  243  A    between atoms: _580  and  _581
REMARK  244  A    between atoms: _581  and  _582
REMARK  245  A    between atoms: _591  and  _593
REMARK  246  A    between atoms: _593  and  _594
REMARK  247  A    between atoms: _593  and  _596
REMARK  248  A    between atoms: _599  and  _601
REMARK  249  A    between atoms: _601  and  _602
REMARK  250  A    between atoms: _604  and  _606
REMARK  251  A    between atoms: _606  and  _607
REMARK  252  A    between atoms: _606  and  _609
REMARK  253  A    between atoms: _609  and  _610
REMARK  254  A    between atoms: _613  and  _615
REMARK  255  A    between atoms: _615  and  _616
REMARK  256  A    between atoms: _619  and  _621
REMARK  257  A    between atoms: _621  and  _622
REMARK  258  A    between atoms: _621  and  _624
REMARK  259  A    between atoms: _624  and  _625
REMARK  260  A    between atoms: _628  and  _630
REMARK  261  A    between atoms: _630  and  _631
REMARK  262  A    between atoms: _630  and  _633
REMARK  263  A    between atoms: _633  and  _634
REMARK  264  A    between atoms: _639  and  _640
REMARK  265  A    between atoms: _642  and  _644
REMARK  266  A    between atoms: _644  and  _645
REMARK  267  A    between atoms: _644  and  _647
REMARK  268  A    between atoms: _647  and  _648
REMARK  269  A    between atoms: _648  and  _649
REMARK  270  A    between atoms: _651  and  _653
REMARK  271  A    between atoms: _653  and  _654
REMARK  272  A    between atoms: _653  and  _656
REMARK  273  A    between atoms: _656  and  _657
REMARK  274  A    between atoms: _657  and  _658
REMARK  275  A    between atoms: _661  and  _663
REMARK  276  A    between atoms: _663  and  _664
REMARK  277  A    between atoms: _663  and  _666
REMARK  278  A    between atoms: _666  and  _667
REMARK  279  A    between atoms: _673  and  _675
REMARK  280  A    between atoms: _675  and  _676
REMARK  281  A    between atoms: _675  and  _678
REMARK  282  A    between atoms: _678  and  _679
REMARK  283  A    between atoms: _684  and  _686
REMARK  284  A    between atoms: _686  and  _687
REMARK  285  A    between atoms: _686  and  _689
REMARK  286  A    between atoms: _689  and  _690
REMARK  287  A    between atoms: _700  and  _702
REMARK  288  A    between atoms: _702  and  _703
REMARK  289  A    between atoms: _702  and  _705
REMARK  290  A    between atoms: _708  and  _710
REMARK  291  A    between atoms: _710  and  _711
REMARK  292  A    between atoms: _710  and  _713
REMARK  293  A    between atoms: _713  and  _714
REMARK  294  A    between atoms: _717  and  _719
REMARK  295  A    between atoms: _719  and  _720
REMARK  296  A    between atoms: _719  and  _722
REMARK  297  A    between atoms: _722  and  _723
REMARK  298  A    between atoms: _723  and  _724
REMARK  299  A    between atoms: _726  and  _728
REMARK  300  A    between atoms: _728  and  _729
REMARK  301  A    between atoms: _728  and  _731
REMARK  302  A    between atoms: _731  and  _732
REMARK  303  A    between atoms: _735  and  _737
REMARK  304  A    between atoms: _737  and  _738
REMARK  305  A    between atoms: _737  and  _740
REMARK  306  A    between atoms: _740  and  _741
REMARK  307  A    between atoms: _744  and  _746
REMARK  308  A    between atoms: _746  and  _747
REMARK  309  A    between atoms: _746  and  _749
REMARK  310  A    between atoms: _749  and  _750
REMARK  311  A    between atoms: _753  and  _755
REMARK  312  A    between atoms: _755  and  _756
REMARK  313  A    between atoms: _755  and  _758
REMARK  314  A    between atoms: _758  and  _759
REMARK  315  A    between atoms: _762  and  _764
REMARK  316  A    between atoms: _764  and  _765
REMARK  317  A    between atoms: _767  and  _769
REMARK  318  A    between atoms: _769  and  _770
REMARK  319  A    between atoms: _769  and  _772
REMARK  320  A    between atoms: _772  and  _773
REMARK  321  A    between atoms: _775  and  _777
REMARK  322  A    between atoms: _777  and  _778
REMARK  323  A    between atoms: _777  and  _780
REMARK  324  A    between atoms: _780  and  _781
REMARK  325  A    between atoms: _791  and  _793
REMARK  326  A    between atoms: _793  and  _794
REMARK  327  A    between atoms: _793  and  _796
REMARK  328  A    between atoms: _796  and  _797
REMARK  329  A    between atoms: _799  and  _801
REMARK  330  A    between atoms: _801  and  _802
REMARK  331  A    between atoms: _801  and  _804
REMARK  332  A    between atoms: _804  and  _805
REMARK  333  A    between atoms: _808  and  _810
REMARK  334  A    between atoms: _810  and  _811
REMARK  335  A    between atoms: _814  and  _816
REMARK  336  A    between atoms: _816  and  _817
REMARK  337  A    between atoms: _816  and  _819
REMARK  338  A    between atoms: _819  and  _820
REMARK  339  A    between atoms: _822  and  _824
REMARK  340  A    between atoms: _824  and  _825
REMARK  341  A    between atoms: _824  and  _827
REMARK  342  A    between atoms: _827  and  _828
REMARK  343  A    between atoms: _828  and  _829
REMARK  344  A    between atoms: _832  and  _834
REMARK  345  A    between atoms: _834  and  _835
REMARK  346  A    between atoms: _834  and  _837
REMARK  347  A    between atoms: _837  and  _838
REMARK  348  A    between atoms: _840  and  _842
REMARK  349  A    between atoms: _842  and  _843
REMARK  350  A    between atoms: _842  and  _845
REMARK  351  A    between atoms: _845  and  _846
REMARK  352  A    between atoms: _846  and  _847
REMARK  353  A    between atoms: _852  and  _854
REMARK  354  A    between atoms: _854  and  _855
REMARK  355  A    between atoms: _854  and  _857
REMARK  356  A    between atoms: _857  and  _858
REMARK  357  A    between atoms: _858  and  _859
REMARK  358  A    between atoms: _864  and  _866
REMARK  359  A    between atoms: _866  and  _867
REMARK  360  A    between atoms: _866  and  _869
REMARK  361  A    between atoms: _869  and  _870
REMARK  362  A    between atoms: _873  and  _875
REMARK  363  A    between atoms: _875  and  _876
REMARK  364  A    between atoms: _875  and  _878
REMARK  365  A    between atoms: _878  and  _879
REMARK  366  A    between atoms: _882  and  _884
REMARK  367  A    between atoms: _884  and  _885
REMARK  368  A    between atoms: _884  and  _887
REMARK  369  A    between atoms: _887  and  _888
REMARK  370  A    between atoms: _895  and  _896
REMARK  371  A    between atoms: _901  and  _903
REMARK  372  A    between atoms: _903  and  _904
REMARK  373  A    between atoms: _903  and  _906
REMARK  374  A    between atoms: _906  and  _907
REMARK  375  A    between atoms: _912  and  _913
REMARK  376  A    between atoms: _915  and  _917
REMARK  377  A    between atoms: _917  and  _918
REMARK  378  A    between atoms: _917  and  _920
REMARK  379  A    between atoms: _920  and  _921
REMARK  380  A    between atoms: _926  and  _928
REMARK  381  A    between atoms: _928  and  _929
REMARK  382  A    between atoms: _928  and  _931
REMARK  383  A    between atoms: _931  and  _932
REMARK  384  A    between atoms: _938  and  _940
REMARK  385  A    between atoms: _940  and  _941
REMARK  386  A    between atoms: _940  and  _943
REMARK  387  A    between atoms: _943  and  _944
REMARK  388  A    between atoms: _947  and  _949
REMARK  389  A    between atoms: _949  and  _950
REMARK  390  A    between atoms: _949  and  _952
REMARK  391  A    between atoms: _952  and  _953
REMARK  392  A    between atoms: _958  and  _960
REMARK  393  A    between atoms: _960  and  _961
REMARK  394  A    between atoms: _960  and  _963
REMARK  395  A    between atoms: _963  and  _964
REMARK  396  A    between atoms: _970  and  _972
REMARK  397  A    between atoms: _972  and  _973
REMARK  398  A    between atoms: _972  and  _975
REMARK  399  A    between atoms: _975  and  _976
REMARK  400  A    between atoms: _976  and  _977
REMARK  401  A    between atoms: _979  and  _981
REMARK  402  A    between atoms: _981  and  _982
REMARK  403  A    between atoms: _981  and  _984
REMARK  404  A    between atoms: _984  and  _985
REMARK  405  A    between atoms: _988  and  _990
REMARK  406  A    between atoms: _990  and  _991
REMARK  407  A    between atoms: _990  and  _993
REMARK  408  A    between atoms: _993  and  _994
REMARK  409  A    between atoms: _999  and  _1001
REMARK  410  A    between atoms: _1001  and  _1002
REMARK  411  A    between atoms: _1001  and  _1004
REMARK  412  A    between atoms: _1004  and  _1005
REMARK  413  A    between atoms: _1010  and  _1011
REMARK                            x       y       z     vdW  Elec       q    Type
REMARK                         _______ _______ _______ _____ _____    ______ ____
ROOT
ATOM      1  CA  GLU A   3     -13.276   4.617  24.061  0.00  0.00    +0.149 C 
ENDROOT
BRANCH   1   3
ATOM      2  C   LEU A   2     -12.994   5.408  21.762  0.00  0.00    +0.241 C 
ATOM      3  N   GLU A   3     -12.740   4.500  22.702  0.00  0.00    -0.297 N 
ATOM      4  H   GLU A   3     -12.143   3.682  22.465  0.00  0.00    +0.150 HD
ATOM      5  O   LEU A   2     -13.608   6.453  21.983  0.00  0.00    -0.273 OA
BRANCH   2   6
ATOM      6  CA  LEU A   2     -12.484   5.088  20.358  0.00  0.00    +0.149 C 
BRANCH   6   8
ATOM      7  C   PHE A   1     -14.324   5.540  18.802  0.00  0.00    +0.239 C 
ATOM      8  N   LEU A   2     -13.146   5.886  19.317  0.00  0.00    -0.297 N 
ATOM      9  H   LEU A   2     -12.679   6.749  18.971  0.00  0.00    +0.150 HD
ATOM     10  O   PHE A   1     -14.990   4.590  19.221  0.00  0.00    -0.274 OA
BRANCH   7  11
ATOM     11  CA  PHE A   1     -14.832   6.382  17.628  0.00  0.00    +0.149 C 
BRANCH  11  12
ATOM     12  N   PHE A   1     -15.655   5.560  16.740  0.00  0.00    -0.238 NA
ATOM     13  H   PHE A   1     -16.311   4.870  17.159  0.00  0.00    +0.142 HD
ENDBRANCH  11  12
BRANCH  11  14
ATOM     14  CB  PHE A   1     -15.579   7.639  18.102  0.00  0.00    +0.053 C 
BRANCH  14  15
ATOM     15  CG  PHE A   1     -16.797   7.356  18.939  0.00  0.00    -0.020 A 
ATOM     16  CD2 PHE A   1     -16.694   7.226  20.324  0.00  0.00    -0.004 A 
ATOM     17  CE2 PHE A   1     -17.819   6.970  21.104  0.00  0.00    -0.000 A 
ATOM     18  CZ  PHE A   1     -19.066   6.854  20.498  0.00  0.00    -0.000 A 
ATOM     19  CE1 PHE A   1     -19.183   6.989  19.118  0.00  0.00    -0.000 A 
ATOM     20  CD1 PHE A   1     -18.052   7.243  18.348  0.00  0.00    -0.004 A 
ENDBRANCH  14  15
ENDBRANCH  11  14
ENDBRANCH   7  11
ENDBRANCH   6   8
BRANCH   6  21
ATOM     21  CB  LEU A   2     -10.959   5.242  20.276  0.00  0.00    +0.029 C 
BRANCH  21  22
ATOM     22  CG  LEU A   2     -10.288   4.806  18.965  0.00  0.00    +0.002 C 
ATOM     23  CD2 LEU A   2      -8.819   5.204  18.953  0.00  0.00    +0.000 C 
ATOM     24  CD1 LEU A   2     -10.442   3.307  18.710  0.00  0.00    +0.000 C 
ENDBRANCH  21  22
ENDBRANCH   6  21
ENDBRANCH   2   6
ENDBRANCH   1   3
BRANCH   1  25
ATOM     25  C   GLU A   3     -12.210   4.541  25.166  0.00  0.00    +0.241 C 
ATOM     26  O   GLU A   3     -12.540   4.308  26.334  0.00  0.00    -0.273 OA
ATOM     27  N   THR A   4     -10.942   4.743  24.806  0.00  0.00    -0.295 N 
ATOM     28  H   THR A   4     -10.723   4.956  23.812  0.00  0.00    +0.150 HD
BRANCH  27  29
ATOM     29  CA  THR A   4      -9.847   4.671  25.785  0.00  0.00    +0.176 C 
BRANCH  29  30
ATOM     30  C   THR A   4      -8.945   5.908  25.799  0.00  0.00    +0.243 C 
ATOM     31  N   VAL A   5      -8.182   6.051  26.883  0.00  0.00    -0.298 N 
ATOM     32  H   VAL A   5      -8.300   5.374  27.664  0.00  0.00    +0.150 HD
ATOM     33  O   THR A   4      -8.951   6.711  24.861  0.00  0.00    -0.273 OA
BRANCH  31  34
ATOM     34  CA  VAL A   5      -7.185   7.115  27.029  0.00  0.00    +0.137 C 
BRANCH  34  35
ATOM     35  CB  VAL A   5      -7.533   8.121  28.171  0.00  0.00    +0.026 C 
ATOM     36  CG2 VAL A   5      -7.825   7.399  29.487  0.00  0.00    +0.002 C 
ATOM     37  CG1 VAL A   5      -8.695   9.017  27.771  0.00  0.00    +0.002 C 
ENDBRANCH  34  35
BRANCH  34  38
ATOM     38  C   VAL A   5      -5.791   6.534  27.268  0.00  0.00    +0.227 C 
ATOM     39  O   VAL A   5      -5.649   5.426  27.792  0.00  0.00    -0.286 OA
ENDBRANCH  34  38
ENDBRANCH  31  34
ENDBRANCH  29  30
BRANCH  29  40
ATOM     40  CB  THR A   4      -8.968   3.401  25.597  0.00  0.00    +0.137 C 
ATOM     41  CG2 THR A   4      -9.748   2.140  25.935  0.00  0.00    +0.034 C 
BRANCH  40  42
ATOM     42  OG1 THR A   4      -8.504   3.324  24.244  0.00  0.00    -0.382 OA
ATOM     43  HG1 THR A   4      -7.946   2.514  24.133  0.00  0.00    +0.210 HD
ENDBRANCH  40  42
ENDBRANCH  29  40
ENDBRANCH  27  29
ENDBRANCH   1  25
BRANCH   1  44
ATOM     44  CB  GLU A   3     -14.355   3.551  24.303  0.00  0.00    +0.041 C 
BRANCH  44  45
ATOM     45  CG  GLU A   3     -15.525   3.577  23.316  0.00  0.00    +0.116 C 
BRANCH  45  46
ATOM     46  CD  GLU A   3     -16.485   2.408  23.497  0.00  0.00    +0.365 C 
ATOM     47  OE2 GLU A   3     -16.674   1.948  24.644  0.00  0.00    -0.246 OA
ATOM     48  OE1 GLU A   3     -17.051   1.946  22.485  0.00  0.00    -0.246 OA
ENDBRANCH  45  46
ENDBRANCH  44  45
ENDBRANCH   1  44
TORSDOF 20
REMARK  Name = ../refined-set-2016/3drg/3drg_pocket.pdb
REMARK  413 active torsions:
REMARK  status: ('A' for Active; 'I' for Inactive)
REMARK    1  A    between atoms: _1  and  _3
REMARK    2  A    between atoms: _3  and  _4
REMARK    3  A    between atoms: _3  and  _6
REMARK    4  A    between atoms: _6  and  _7
REMARK    5  A    between atoms: _12  and  _13
REMARK    6  A    between atoms: _15  and  _17
REMARK    7  A    between atoms: _17  and  _18
REMARK    8  A    between atoms: _17  and  _20
REMARK    9  A    between atoms: _20  and  _21
REMARK   10  A    between atoms: _21  and  _22
REMARK   11  A    between atoms: _27  and  _29
REMARK   12  A    between atoms: _29  and  _30
REMARK   13  A    between atoms: _29  and  _32
REMARK   14  A    between atoms: _32  and  _33
REMARK   15  A    between atoms: _35  and  _37
REMARK   16  A    between atoms: _37  and  _38
REMARK   17  A    between atoms: _37  and  _40
REMARK   18  A    between atoms: _40  and  _41
REMARK   19  A    between atoms: _44  and  _46
REMARK   20  A    between atoms: _46  and  _47
REMARK   21  A    between atoms: _46  and  _49
REMARK   22  A    between atoms: _49  and  _50
REMARK   23  A    between atoms: _52  and  _54
REMARK   24  A    between atoms: _54  and  _55
REMARK   25  A    between atoms: _54  and  _57
REMARK   26  A    between atoms: _57  and  _58
REMARK   27  A    between atoms: _61  and  _63
REMARK   28  A    between atoms: _63  and  _64
REMARK   29  A    between atoms: _63  and  _66
REMARK   30  A    between atoms: _66  and  _67
REMARK   31  A    between atoms: _69  and  _71
REMARK   32  A    between atoms: _71  and  _72
REMARK   33  A    between atoms: _74  and  _76
REMARK   34  A    between atoms: _76  and  _77
REMARK   35  A    between atoms: _76  and  _79
REMARK   36  A    between atoms: _79  and  _80
REMARK   37  A    between atoms: _82  and  _84
REMARK   38  A    between atoms: _84  and  _85
REMARK   39  A    between atoms: _84  and  _87
REMARK   40  A    between atoms: _87  and  _88
REMARK   41  A    between atoms: _93  and  _95
REMARK   42  A    between atoms: _95  and  _96
REMARK   43  A    between atoms: _95  and  _98
REMARK   44  A    between atoms: _98  and  _99
REMARK   45  A    between atoms: _102  and  _104
REMARK   46  A    between atoms: _104  and  _105
REMARK   47  A    between atoms: _108  and  _110
REMARK   48  A    between atoms: _110  and  _111
REMARK   49  A    between atoms: _110  and  _113
REMARK   50  A    between atoms: _113  and  _114
REMARK   51  A    between atoms: _117  and  _119
REMARK   52  A    between atoms: _119  and  _120
REMARK   53  A    between atoms: _119  and  _122
REMARK   54  A    between atoms: _122  and  _123
REMARK   55  A    between atoms: _129  and  _131
REMARK   56  A    between atoms: _131  and  _132
REMARK   57  A    between atoms: _135  and  _137
REMARK   58  A    between atoms: _137  and  _138
REMARK   59  A    between atoms: _137  and  _140
REMARK   60  A    between atoms: _140  and  _141
REMARK   61  A    between atoms: _144  and  _146
REMARK   62  A    between atoms: _146  and  _147
REMARK   63  A    between atoms: _146  and  _149
REMARK   64  A    between atoms: _149  and  _150
REMARK   65  A    between atoms: _152  and  _154
REMARK   66  A    between atoms: _154  and  _155
REMARK   67  A    between atoms: _157  and  _159
REMARK   68  A    between atoms: _159  and  _160
REMARK   69  A    between atoms: _162  and  _164
REMARK   70  A    between atoms: _164  and  _165
REMARK   71  A    between atoms: _164  and  _167
REMARK   72  A    between atoms: _167  and  _168
REMARK   73  A    between atoms: _168  and  _169
REMARK   74  A    between atoms: _174  and  _176
REMARK   75  A    between atoms: _176  and  _177
REMARK   76  A    between atoms: _176  and  _179
REMARK   77  A    between atoms: _179  and  _180
REMARK   78  A    between atoms: _183  and  _185
REMARK   79  A    between atoms: _185  and  _186
REMARK   80  A    between atoms: _188  and  _190
REMARK   81  A    between atoms: _190  and  _191
REMARK   82  A    between atoms: _190  and  _193
REMARK   83  A    between atoms: _193  and  _194
REMARK   84  A    between atoms: _197  and  _199
REMARK   85  A    between atoms: _199  and  _200
REMARK   86  A    between atoms: _199  and  _202
REMARK   87  A    between atoms: _202  and  _203
REMARK   88  A    between atoms: _209  and  _211
REMARK   89  A    between atoms: _211  and  _212
REMARK   90  A    between atoms: _211  and  _214
REMARK   91  A    between atoms: _214  and  _215
REMARK   92  A    between atoms: _218  and  _220
REMARK   93  A    between atoms: _220  and  _221
REMARK   94  A    between atoms: _220  and  _223
REMARK   95  A    between atoms: _223  and  _224
REMARK   96  A    between atoms: _230  and  _232
REMARK   97  A    between atoms: _232  and  _233
REMARK   98  A    between atoms: _232  and  _235
REMARK   99  A    between atoms: _235  and  _236
REMARK  100  A    between atoms: _242  and  _244
REMARK  101  A    between atoms: _244  and  _245
REMARK  102  A    between atoms: _244  and  _247
REMARK  103  A    between atoms: _247  and  _248
REMARK  104  A    between atoms: _251  and  _253
REMARK  105  A    between atoms: _253  and  _254
REMARK  106  A    between atoms: _253  and  _256
REMARK  107  A    between atoms: _256  and  _257
REMARK  108  A    between atoms: _260  and  _262
REMARK  109  A    between atoms: _262  and  _263
REMARK  110  A    between atoms: _262  and  _265
REMARK  111  A    between atoms: _265  and  _266
REMARK  112  A    between atoms: _266  and  _267
REMARK  113  A    between atoms: _267  and  _268
REMARK  114  A    between atoms: _277  and  _279
REMARK  115  A    between atoms: _279  and  _280
REMARK  116  A    between atoms: _279  and  _282
REMARK  117  A    between atoms: _282  and  _283
REMARK  118  A    between atoms: _286  and  _288
REMARK  119  A    between atoms: _288  and  _289
REMARK  120  A    between atoms: _288  and  _291
REMARK  121  A    between atoms: _291  and  _292
REMARK  122  A    between atoms: _292  and  _293
REMARK  123  A    between atoms: _298  and  _300
REMARK  124  A    between atoms: _300  and  _301
REMARK  125  A    between atoms: _300  and  _303
REMARK  126  A    between atoms: _303  and  _304
REMARK  127  A    between atoms: _306  and  _308
REMARK  128  A    between atoms: _308  and  _309
REMARK  129  A    between atoms: _311  and  _313
REMARK  130  A    between atoms: _313  and  _314
REMARK  131  A    between atoms: _313  and  _316
REMARK  132  A    between atoms: _316  and  _317
REMARK  133  A    between atoms: _322  and  _324
REMARK  134  A    between atoms: _324  and  _325
REMARK  135  A    between atoms: _327  and  _329
REMARK  136  A    between atoms: _329  and  _330
REMARK  137  A    between atoms: _329  and  _332
REMARK  138  A    between atoms: _332  and  _333
REMARK  139  A    between atoms: _339  and  _341
REMARK  140  A    between atoms: _341  and  _342
REMARK  141  A    between atoms: _341  and  _344
REMARK  142  A    between atoms: _344  and  _345
REMARK  143  A    between atoms: _348  and  _350
REMARK  144  A    between atoms: _350  and  _351
REMARK  145  A    between atoms: _350  and  _353
REMARK  146  A    between atoms: _353  and  _354
REMARK  147  A    between atoms: _354  and  _355
REMARK  148  A    between atoms: _358  and  _360
REMARK  149  A    between atoms: _360  and  _361
REMARK  150  A    between atoms: _360  and  _363
REMARK  151  A    between atoms: _363  and  _364
REMARK  152  A    between atoms: _367  and  _369
REMARK  153  A    between atoms: _369  and  _370
REMARK  154  A    between atoms: _369  and  _372
REMARK  155  A    between atoms: _375  and  _377
REMARK  156  A    between atoms: _377  and  _378
REMARK  157  A    between atoms: _377  and  _380
REMARK  158  A    between atoms: _380  and  _381
REMARK  159  A    between atoms: _384  and  _386
REMARK  160  A    between atoms: _386  and  _387
REMARK  161  A    between atoms: _386  and  _389
REMARK  162  A    between atoms: _389  and  _390
REMARK  163  A    between atoms: _395  and  _397
REMARK  164  A    between atoms: _397  and  _398
REMARK  165  A    between atoms: _400  and  _402
REMARK  166  A    between atoms: _402  and  _403
REMARK  167  A    between atoms: _402  and  _405
REMARK  168  A    between atoms: _405  and  _406
REMARK  169  A    between atoms: _406  and  _407
REMARK  170  A    between atoms: _409  and  _411
REMARK  171  A    between atoms: _411  and  _412
REMARK  172  A    between atoms: _411  and  _414
REMARK  173  A    between atoms: _417  and  _419
REMARK  174  A    between atoms: _419  and  _420
REMARK  175  A    between atoms: _419  and  _422
REMARK  176  A    between atoms: _422  and  _423
REMARK  177  A    between atoms: _425  and  _427
REMARK  178  A    between atoms: _427  and  _428
REMARK  179  A    between atoms: _427  and  _430
REMARK  180  A    between atoms: _430  and  _431
REMARK  181  A    between atoms: _433  and  _435
REMARK  182  A    between atoms: _435  and  _436
REMARK  183  A    between atoms: _435  and  _438
REMARK  184  A    between atoms: _438  and  _439
REMARK  185  A    between atoms: _439  and  _440
REMARK  186  A    between atoms: _445  and  _447
REMARK  187  A    between atoms: _447  and  _448
REMARK  188  A    between atoms: _451  and  _453
REMARK  189  A    between atoms: _453  and  _454
REMARK  190  A    between atoms: _453  and  _456
REMARK  191  A    between atoms: _456  and  _457
REMARK  192  A    between atoms: _457  and  _458
REMARK  193  A    between atoms: _460  and  _462
REMARK  194  A    between atoms: _462  and  _463
REMARK  195  A    between atoms: _462  and  _465
REMARK  196  A    between atoms: _465  and  _466
REMARK  197  A    between atoms: _471  and  _472
REMARK  198  A    between atoms: _474  and  _476
REMARK  199  A    between atoms: _476  and  _477
REMARK  200  A    between atoms: _476  and  _479
REMARK  201  A    between atoms: _479  and  _480
REMARK  202  A    between atoms: _483  and  _485
REMARK  203  A    between atoms: _485  and  _486
REMARK  204  A    between atoms: _485  and  _488
REMARK  205  A    between atoms: _488  and  _489
REMARK  206  A    between atoms: _491  and  _493
REMARK  207  A    between atoms: _493  and  _494
REMARK  208  A    between atoms: _493  and  _496
REMARK  209  A    between atoms: _496  and  _497
REMARK  210  A    between atoms: _500  and  _502
REMARK  211  A    between atoms: _502  and  _503
REMARK  212  A    between atoms: _502  and  _505
REMARK  213  A    between atoms: _505  and  _506
REMARK  214  A    between atoms: _506  and  _507
REMARK  215  A    between atoms: _509  and  _511
REMARK  216  A    between atoms: _511  and  _512
REMARK  217  A    between atoms: _511  and  _514
REMARK  218  A    between atoms: _514  and  _515
REMARK  219  A    between atoms: _520  and  _521
REMARK  220  A    between atoms: _523  and  _525
REMARK  221  A    between atoms: _525  and  _526
REMARK  222  A    between atoms: _525  and  _528
REMARK  223  A    between atoms: _528  and  _529
REMARK  224  A    between atoms: _529  and  _530
REMARK  225  A    between atoms: _530  and  _531
REMARK  226  A    between atoms: _540  and  _542
REMARK  227  A    between atoms: _542  and  _543
REMARK  228  A    between atoms: _542  and  _545
REMARK  229  A    between atoms: _545  and  _546
REMARK  230  A    between atoms: _548  and  _550
REMARK  231  A    between atoms: _550  and  _551
REMARK  232  A    between atoms: _550  and  _553
REMARK  233  A    between atoms: _553  and  _554
REMARK  234  A    between atoms: _559  and  _560
REMARK  235  A    between atoms: _562  and  _564
REMARK  236  A    between atoms: _564  and  _565
REMARK  237  A    between atoms: _568  and  _570
REMARK  238  A    between atoms: _570  and  _571
REMARK  239  A    between atoms: _574  and  _576
REMARK  240  A    between atoms: _576  and  _577
REMARK  241  A    between atoms: _576  and  _579
REMARK  242  A    between atoms: _579  and  _580
REMARK  243  A    between atoms: _580  and  _581
REMARK  244  A    between atoms: _581  and  _582
REMARK  245  A    between atoms: _591  and  _593
REMARK  246  A    between atoms: _593  and  _594
REMARK  247  A    between atoms: _593  and  _596
REMARK  248  A    between atoms: _599  and  _601
REMARK  249  A    between atoms: _601  and  _602
REMARK  250  A    between atoms: _604  and  _606
REMARK  251  A    between atoms: _606  and  _607
REMARK  252  A    between atoms: _606  and  _609
REMARK  253  A    between atoms: _609  and  _610
REMARK  254  A    between atoms: _613  and  _615
REMARK  255  A    between atoms: _615  and  _616
REMARK  256  A    between atoms: _619  and  _621
REMARK  257  A    between atoms: _621  and  _622
REMARK  258  A    between atoms: _621  and  _624
REMARK  259  A    between atoms: _624  and  _625
REMARK  260  A    between atoms: _628  and  _630
REMARK  261  A    between atoms: _630  and  _631
REMARK  262  A    between atoms: _630  and  _633
REMARK  263  A    between atoms: _633  and  _634
REMARK  264  A    between atoms: _639  and  _640
REMARK  265  A    between atoms: _642  and  _644
REMARK  266  A    between atoms: _644  and  _645
REMARK  267  A    between atoms: _644  and  _647
REMARK  268  A    between atoms: _647  and  _648
REMARK  269  A    between atoms: _648  and  _649
REMARK  270  A    between atoms: _651  and  _653
REMARK  271  A    between atoms: _653  and  _654
REMARK  272  A    between atoms: _653  and  _656
REMARK  273  A    between atoms: _656  and  _657
REMARK  274  A    between atoms: _657  and  _658
REMARK  275  A    between atoms: _661  and  _663
REMARK  276  A    between atoms: _663  and  _664
REMARK  277  A    between atoms: _663  and  _666
REMARK  278  A    between atoms: _666  and  _667
REMARK  279  A    between atoms: _673  and  _675
REMARK  280  A    between atoms: _675  and  _676
REMARK  281  A    between atoms: _675  and  _678
REMARK  282  A    between atoms: _678  and  _679
REMARK  283  A    between atoms: _684  and  _686
REMARK  284  A    between atoms: _686  and  _687
REMARK  285  A    between atoms: _686  and  _689
REMARK  286  A    between atoms: _689  and  _690
REMARK  287  A    between atoms: _700  and  _702
REMARK  288  A    between atoms: _702  and  _703
REMARK  289  A    between atoms: _702  and  _705
REMARK  290  A    between atoms: _708  and  _710
REMARK  291  A    between atoms: _710  and  _711
REMARK  292  A    between atoms: _710  and  _713
REMARK  293  A    between atoms: _713  and  _714
REMARK  294  A    between atoms: _717  and  _719
REMARK  295  A    between atoms: _719  and  _720
REMARK  296  A    between atoms: _719  and  _722
REMARK  297  A    between atoms: _722  and  _723
REMARK  298  A    between atoms: _723  and  _724
REMARK  299  A    between atoms: _726  and  _728
REMARK  300  A    between atoms: _728  and  _729
REMARK  301  A    between atoms: _728  and  _731
REMARK  302  A    between atoms: _731  and  _732
REMARK  303  A    between atoms: _735  and  _737
REMARK  304  A    between atoms: _737  and  _738
REMARK  305  A    between atoms: _737  and  _740
REMARK  306  A    between atoms: _740  and  _741
REMARK  307  A    between atoms: _744  and  _746
REMARK  308  A    between atoms: _746  and  _747
REMARK  309  A    between atoms: _746  and  _749
REMARK  310  A    between atoms: _749  and  _750
REMARK  311  A    between atoms: _753  and  _755
REMARK  312  A    between atoms: _755  and  _756
REMARK  313  A    between atoms: _755  and  _758
REMARK  314  A    between atoms: _758  and  _759
REMARK  315  A    between atoms: _762  and  _764
REMARK  316  A    between atoms: _764  and  _765
REMARK  317  A    between atoms: _767  and  _769
REMARK  318  A    between atoms: _769  and  _770
REMARK  319  A    between atoms: _769  and  _772
REMARK  320  A    between atoms: _772  and  _773
REMARK  321  A    between atoms: _775  and  _777
REMARK  322  A    between atoms: _777  and  _778
REMARK  323  A    between atoms: _777  and  _780
REMARK  324  A    between atoms: _780  and  _781
REMARK  325  A    between atoms: _791  and  _793
REMARK  326  A    between atoms: _793  and  _794
REMARK  327  A    between atoms: _793  and  _796
REMARK  328  A    between atoms: _796  and  _797
REMARK  329  A    between atoms: _799  and  _801
REMARK  330  A    between atoms: _801  and  _802
REMARK  331  A    between atoms: _801  and  _804
REMARK  332  A    between atoms: _804  and  _805
REMARK  333  A    between atoms: _808  and  _810
REMARK  334  A    between atoms: _810  and  _811
REMARK  335  A    between atoms: _814  and  _816
REMARK  336  A    between atoms: _816  and  _817
REMARK  337  A    between atoms: _816  and  _819
REMARK  338  A    between atoms: _819  and  _820
REMARK  339  A    between atoms: _822  and  _824
REMARK  340  A    between atoms: _824  and  _825
REMARK  341  A    between atoms: _824  and  _827
REMARK  342  A    between atoms: _827  and  _828
REMARK  343  A    between atoms: _828  and  _829
REMARK  344  A    between atoms: _832  and  _834
REMARK  345  A    between atoms: _834  and  _835
REMARK  346  A    between atoms: _834  and  _837
REMARK  347  A    between atoms: _837  and  _838
REMARK  348  A    between atoms: _840  and  _842
REMARK  349  A    between atoms: _842  and  _843
REMARK  350  A    between atoms: _842  and  _845
REMARK  351  A    between atoms: _845  and  _846
REMARK  352  A    between atoms: _846  and  _847
REMARK  353  A    between atoms: _852  and  _854
REMARK  354  A    between atoms: _854  and  _855
REMARK  355  A    between atoms: _854  and  _857
REMARK  356  A    between atoms: _857  and  _858
REMARK  357  A    between atoms: _858  and  _859
REMARK  358  A    between atoms: _864  and  _866
REMARK  359  A    between atoms: _866  and  _867
REMARK  360  A    between atoms: _866  and  _869
REMARK  361  A    between atoms: _869  and  _870
REMARK  362  A    between atoms: _873  and  _875
REMARK  363  A    between atoms: _875  and  _876
REMARK  364  A    between atoms: _875  and  _878
REMARK  365  A    between atoms: _878  and  _879
REMARK  366  A    between atoms: _882  and  _884
REMARK  367  A    between atoms: _884  and  _885
REMARK  368  A    between atoms: _884  and  _887
REMARK  369  A    between atoms: _887  and  _888
REMARK  370  A    between atoms: _895  and  _896
REMARK  371  A    between atoms: _901  and  _903
REMARK  372  A    between atoms: _903  and  _904
REMARK  373  A    between atoms: _903  and  _906
REMARK  374  A    between atoms: _906  and  _907
REMARK  375  A    between atoms: _912  and  _913
REMARK  376  A    between atoms: _915  and  _917
REMARK  377  A    between atoms: _917  and  _918
REMARK  378  A    between atoms: _917  and  _920
REMARK  379  A    between atoms: _920  and  _921
REMARK  380  A    between atoms: _926  and  _928
REMARK  381  A    between atoms: _928  and  _929
REMARK  382  A    between atoms: _928  and  _931
REMARK  383  A    between atoms: _931  and  _932
REMARK  384  A    between atoms: _938  and  _940
REMARK  385  A    between atoms: _940  and  _941
REMARK  386  A    between atoms: _940  and  _943
REMARK  387  A    between atoms: _943  and  _944
REMARK  388  A    between atoms: _947  and  _949
REMARK  389  A    between atoms: _949  and  _950
REMARK  390  A    between atoms: _949  and  _952
REMARK  391  A    between atoms: _952  and  _953
REMARK  392  A    between atoms: _958  and  _960
REMARK  393  A    between atoms: _960  and  _961
REMARK  394  A    between atoms: _960  and  _963
REMARK  395  A    between atoms: _963  and  _964
REMARK  396  A    between atoms: _970  and  _972
REMARK  397  A    between atoms: _972  and  _973
REMARK  398  A    between atoms: _972  and  _975
REMARK  399  A    between atoms: _975  and  _976
REMARK  400  A    between atoms: _976  and  _977
REMARK  401  A    between atoms: _979  and  _981
REMARK  402  A    between atoms: _981  and  _982
REMARK  403  A    between atoms: _981  and  _984
REMARK  404  A    between atoms: _984  and  _985
REMARK  405  A    between atoms: _988  and  _990
REMARK  406  A    between atoms: _990  and  _991
REMARK  407  A    between atoms: _990  and  _993
REMARK  408  A    between atoms: _993  and  _994
REMARK  409  A    between atoms: _999  and  _1001
REMARK  410  A    between atoms: _1001  and  _1002
REMARK  411  A    between atoms: _1001  and  _1004
REMARK  412  A    between atoms: _1004  and  _1005
REMARK  413  A    between atoms: _1010  and  _1011
REMARK                            x       y       z     vdW  Elec       q    Type
REMARK                         _______ _______ _______ _____ _____    ______ ____
ROOT
ATOM      1  CA  THR A   1      -5.726 -25.886  30.168  0.00  0.00    +0.160 C 
ENDROOT
BRANCH   1   2
ATOM      2  N   THR A   1      -4.522 -25.062  30.292  0.00  0.00    -0.237 NA
ATOM      3  H   THR A   1      -3.994 -24.821  29.429  0.00  0.00    +0.142 HD
ENDBRANCH   1   2
BRANCH   1   4
ATOM      4  C   THR A   1      -5.623 -27.165  31.004  0.00  0.00    +0.227 C 
ATOM      5  O   THR A   1      -6.589 -27.559  31.661  0.00  0.00    -0.287 OA
ENDBRANCH   1   4
BRANCH   1   6
ATOM      6  CB  THR A   1      -6.020 -26.230  28.685  0.00  0.00    +0.134 C 
ATOM      7  CG2 THR A   1      -7.346 -26.965  28.541  0.00  0.00    +0.034 C 
BRANCH   6   8
ATOM      8  OG1 THR A   1      -6.075 -25.022  27.916  0.00  0.00    -0.383 OA
ATOM      9  HG1 THR A   1      -5.206 -24.551  27.980  0.00  0.00    +0.210 HD
ENDBRANCH   6   8
ENDBRANCH   1   6
TORSDOF 4
REMARK  Name = ../refined-set-2016/3drg/3drg_pocket.pdb
REMARK  413 active torsions:
REMARK  status: ('A' for Active; 'I' for Inactive)
REMARK    1  A    between atoms: _1  and  _3
REMARK    2  A    between atoms: _3  and  _4
REMARK    3  A    between atoms: _3  and  _6
REMARK    4  A    between atoms: _6  and  _7
REMARK    5  A    between atoms: _12  and  _13
REMARK    6  A    between atoms: _15  and  _17
REMARK    7  A    between atoms: _17  and  _18
REMARK    8  A    between atoms: _17  and  _20
REMARK    9  A    between atoms: _20  and  _21
REMARK   10  A    between atoms: _21  and  _22
REMARK   11  A    between atoms: _27  and  _29
REMARK   12  A    between atoms: _29  and  _30
REMARK   13  A    between atoms: _29  and  _32
REMARK   14  A    between atoms: _32  and  _33
REMARK   15  A    between atoms: _35  and  _37
REMARK   16  A    between atoms: _37  and  _38
REMARK   17  A    between atoms: _37  and  _40
REMARK   18  A    between atoms: _40  and  _41
REMARK   19  A    between atoms: _44  and  _46
REMARK   20  A    between atoms: _46  and  _47
REMARK   21  A    between atoms: _46  and  _49
REMARK   22  A    between atoms: _49  and  _50
REMARK   23  A    between atoms: _52  and  _54
REMARK   24  A    between atoms: _54  and  _55
REMARK   25  A    between atoms: _54  and  _57
REMARK   26  A    between atoms: _57  and  _58
REMARK   27  A    between atoms: _61  and  _63
REMARK   28  A    between atoms: _63  and  _64
REMARK   29  A    between atoms: _63  and  _66
REMARK   30  A    between atoms: _66  and  _67
REMARK   31  A    between atoms: _69  and  _71
REMARK   32  A    between atoms: _71  and  _72
REMARK   33  A    between atoms: _74  and  _76
REMARK   34  A    between atoms: _76  and  _77
REMARK   35  A    between atoms: _76  and  _79
REMARK   36  A    between atoms: _79  and  _80
REMARK   37  A    between atoms: _82  and  _84
REMARK   38  A    between atoms: _84  and  _85
REMARK   39  A    between atoms: _84  and  _87
REMARK   40  A    between atoms: _87  and  _88
REMARK   41  A    between atoms: _93  and  _95
REMARK   42  A    between atoms: _95  and  _96
REMARK   43  A    between atoms: _95  and  _98
REMARK   44  A    between atoms: _98  and  _99
REMARK   45  A    between atoms: _102  and  _104
REMARK   46  A    between atoms: _104  and  _105
REMARK   47  A    between atoms: _108  and  _110
REMARK   48  A    between atoms: _110  and  _111
REMARK   49  A    between atoms: _110  and  _113
REMARK   50  A    between atoms: _113  and  _114
REMARK   51  A    between atoms: _117  and  _119
REMARK   52  A    between atoms: _119  and  _120
REMARK   53  A    between atoms: _119  and  _122
REMARK   54  A    between atoms: _122  and  _123
REMARK   55  A    between atoms: _129  and  _131
REMARK   56  A    between atoms: _131  and  _132
REMARK   57  A    between atoms: _135  and  _137
REMARK   58  A    between atoms: _137  and  _138
REMARK   59  A    between atoms: _137  and  _140
REMARK   60  A    between atoms: _140  and  _141
REMARK   61  A    between atoms: _144  and  _146
REMARK   62  A    between atoms: _146  and  _147
REMARK   63  A    between atoms: _146  and  _149
REMARK   64  A    between atoms: _149  and  _150
REMARK   65  A    between atoms: _152  and  _154
REMARK   66  A    between atoms: _154  and  _155
REMARK   67  A    between atoms: _157  and  _159
REMARK   68  A    between atoms: _159  and  _160
REMARK   69  A    between atoms: _162  and  _164
REMARK   70  A    between atoms: _164  and  _165
REMARK   71  A    between atoms: _164  and  _167
REMARK   72  A    between atoms: _167  and  _168
REMARK   73  A    between atoms: _168  and  _169
REMARK   74  A    between atoms: _174  and  _176
REMARK   75  A    between atoms: _176  and  _177
REMARK   76  A    between atoms: _176  and  _179
REMARK   77  A    between atoms: _179  and  _180
REMARK   78  A    between atoms: _183  and  _185
REMARK   79  A    between atoms: _185  and  _186
REMARK   80  A    between atoms: _188  and  _190
REMARK   81  A    between atoms: _190  and  _191
REMARK   82  A    between atoms: _190  and  _193
REMARK   83  A    between atoms: _193  and  _194
REMARK   84  A    between atoms: _197  and  _199
REMARK   85  A    between atoms: _199  and  _200
REMARK   86  A    between atoms: _199  and  _202
REMARK   87  A    between atoms: _202  and  _203
REMARK   88  A    between atoms: _209  and  _211
REMARK   89  A    between atoms: _211  and  _212
REMARK   90  A    between atoms: _211  and  _214
REMARK   91  A    between atoms: _214  and  _215
REMARK   92  A    between atoms: _218  and  _220
REMARK   93  A    between atoms: _220  and  _221
REMARK   94  A    between atoms: _220  and  _223
REMARK   95  A    between atoms: _223  and  _224
REMARK   96  A    between atoms: _230  and  _232
REMARK   97  A    between atoms: _232  and  _233
REMARK   98  A    between atoms: _232  and  _235
REMARK   99  A    between atoms: _235  and  _236
REMARK  100  A    between atoms: _242  and  _244
REMARK  101  A    between atoms: _244  and  _245
REMARK  102  A    between atoms: _244  and  _247
REMARK  103  A    between atoms: _247  and  _248
REMARK  104  A    between atoms: _251  and  _253
REMARK  105  A    between atoms: _253  and  _254
REMARK  106  A    between atoms: _253  and  _256
REMARK  107  A    between atoms: _256  and  _257
REMARK  108  A    between atoms: _260  and  _262
REMARK  109  A    between atoms: _262  and  _263
REMARK  110  A    between atoms: _262  and  _265
REMARK  111  A    between atoms: _265  and  _266
REMARK  112  A    between atoms: _266  and  _267
REMARK  113  A    between atoms: _267  and  _268
REMARK  114  A    between atoms: _277  and  _279
REMARK  115  A    between atoms: _279  and  _280
REMARK  116  A    between atoms: _279  and  _282
REMARK  117  A    between atoms: _282  and  _283
REMARK  118  A    between atoms: _286  and  _288
REMARK  119  A    between atoms: _288  and  _289
REMARK  120  A    between atoms: _288  and  _291
REMARK  121  A    between atoms: _291  and  _292
REMARK  122  A    between atoms: _292  and  _293
REMARK  123  A    between atoms: _298  and  _300
REMARK  124  A    between atoms: _300  and  _301
REMARK  125  A    between atoms: _300  and  _303
REMARK  126  A    between atoms: _303  and  _304
REMARK  127  A    between atoms: _306  and  _308
REMARK  128  A    between atoms: _308  and  _309
REMARK  129  A    between atoms: _311  and  _313
REMARK  130  A    between atoms: _313  and  _314
REMARK  131  A    between atoms: _313  and  _316
REMARK  132  A    between atoms: _316  and  _317
REMARK  133  A    between atoms: _322  and  _324
REMARK  134  A    between atoms: _324  and  _325
REMARK  135  A    between atoms: _327  and  _329
REMARK  136  A    between atoms: _329  and  _330
REMARK  137  A    between atoms: _329  and  _332
REMARK  138  A    between atoms: _332  and  _333
REMARK  139  A    between atoms: _339  and  _341
REMARK  140  A    between atoms: _341  and  _342
REMARK  141  A    between atoms: _341  and  _344
REMARK  142  A    between atoms: _344  and  _345
REMARK  143  A    between atoms: _348  and  _350
REMARK  144  A    between atoms: _350  and  _351
REMARK  145  A    between atoms: _350  and  _353
REMARK  146  A    between atoms: _353  and  _354
REMARK  147  A    between atoms: _354  and  _355
REMARK  148  A    between atoms: _358  and  _360
REMARK  149  A    between atoms: _360  and  _361
REMARK  150  A    between atoms: _360  and  _363
REMARK  151  A    between atoms: _363  and  _364
REMARK  152  A    between atoms: _367  and  _369
REMARK  153  A    between atoms: _369  and  _370
REMARK  154  A    between atoms: _369  and  _372
REMARK  155  A    between atoms: _375  and  _377
REMARK  156  A    between atoms: _377  and  _378
REMARK  157  A    between atoms: _377  and  _380
REMARK  158  A    between atoms: _380  and  _381
REMARK  159  A    between atoms: _384  and  _386
REMARK  160  A    between atoms: _386  and  _387
REMARK  161  A    between atoms: _386  and  _389
REMARK  162  A    between atoms: _389  and  _390
REMARK  163  A    between atoms: _395  and  _397
REMARK  164  A    between atoms: _397  and  _398
REMARK  165  A    between atoms: _400  and  _402
REMARK  166  A    between atoms: _402  and  _403
REMARK  167  A    between atoms: _402  and  _405
REMARK  168  A    between atoms: _405  and  _406
REMARK  169  A    between atoms: _406  and  _407
REMARK  170  A    between atoms: _409  and  _411
REMARK  171  A    between atoms: _411  and  _412
REMARK  172  A    between atoms: _411  and  _414
REMARK  173  A    between atoms: _417  and  _419
REMARK  174  A    between atoms: _419  and  _420
REMARK  175  A    between atoms: _419  and  _422
REMARK  176  A    between atoms: _422  and  _423
REMARK  177  A    between atoms: _425  and  _427
REMARK  178  A    between atoms: _427  and  _428
REMARK  179  A    between atoms: _427  and  _430
REMARK  180  A    between atoms: _430  and  _431
REMARK  181  A    between atoms: _433  and  _435
REMARK  182  A    between atoms: _435  and  _436
REMARK  183  A    between atoms: _435  and  _438
REMARK  184  A    between atoms: _438  and  _439
REMARK  185  A    between atoms: _439  and  _440
REMARK  186  A    between atoms: _445  and  _447
REMARK  187  A    between atoms: _447  and  _448
REMARK  188  A    between atoms: _451  and  _453
REMARK  189  A    between atoms: _453  and  _454
REMARK  190  A    between atoms: _453  and  _456
REMARK  191  A    between atoms: _456  and  _457
REMARK  192  A    between atoms: _457  and  _458
REMARK  193  A    between atoms: _460  and  _462
REMARK  194  A    between atoms: _462  and  _463
REMARK  195  A    between atoms: _462  and  _465
REMARK  196  A    between atoms: _465  and  _466
REMARK  197  A    between atoms: _471  and  _472
REMARK  198  A    between atoms: _474  and  _476
REMARK  199  A    between atoms: _476  and  _477
REMARK  200  A    between atoms: _476  and  _479
REMARK  201  A    between atoms: _479  and  _480
REMARK  202  A    between atoms: _483  and  _485
REMARK  203  A    between atoms: _485  and  _486
REMARK  204  A    between atoms: _485  and  _488
REMARK  205  A    between atoms: _488  and  _489
REMARK  206  A    between atoms: _491  and  _493
REMARK  207  A    between atoms: _493  and  _494
REMARK  208  A    between atoms: _493  and  _496
REMARK  209  A    between atoms: _496  and  _497
REMARK  210  A    between atoms: _500  and  _502
REMARK  211  A    between atoms: _502  and  _503
REMARK  212  A    between atoms: _502  and  _505
REMARK  213  A    between atoms: _505  and  _506
REMARK  214  A    between atoms: _506  and  _507
REMARK  215  A    between atoms: _509  and  _511
REMARK  216  A    between atoms: _511  and  _512
REMARK  217  A    between atoms: _511  and  _514
REMARK  218  A    between atoms: _514  and  _515
REMARK  219  A    between atoms: _520  and  _521
REMARK  220  A    between atoms: _523  and  _525
REMARK  221  A    between atoms: _525  and  _526
REMARK  222  A    between atoms: _525  and  _528
REMARK  223  A    between atoms: _528  and  _529
REMARK  224  A    between atoms: _529  and  _530
REMARK  225  A    between atoms: _530  and  _531
REMARK  226  A    between atoms: _540  and  _542
REMARK  227  A    between atoms: _542  and  _543
REMARK  228  A    between atoms: _542  and  _545
REMARK  229  A    between atoms: _545  and  _546
REMARK  230  A    between atoms: _548  and  _550
REMARK  231  A    between atoms: _550  and  _551
REMARK  232  A    between atoms: _550  and  _553
REMARK  233  A    between atoms: _553  and  _554
REMARK  234  A    between atoms: _559  and  _560
REMARK  235  A    between atoms: _562  and  _564
REMARK  236  A    between atoms: _564  and  _565
REMARK  237  A    between atoms: _568  and  _570
REMARK  238  A    between atoms: _570  and  _571
REMARK  239  A    between atoms: _574  and  _576
REMARK  240  A    between atoms: _576  and  _577
REMARK  241  A    between atoms: _576  and  _579
REMARK  242  A    between atoms: _579  and  _580
REMARK  243  A    between atoms: _580  and  _581
REMARK  244  A    between atoms: _581  and  _582
REMARK  245  A    between atoms: _591  and  _593
REMARK  246  A    between atoms: _593  and  _594
REMARK  247  A    between atoms: _593  and  _596
REMARK  248  A    between atoms: _599  and  _601
REMARK  249  A    between atoms: _601  and  _602
REMARK  250  A    between atoms: _604  and  _606
REMARK  251  A    between atoms: _606  and  _607
REMARK  252  A    between atoms: _606  and  _609
REMARK  253  A    between atoms: _609  and  _610
REMARK  254  A    between atoms: _613  and  _615
REMARK  255  A    between atoms: _615  and  _616
REMARK  256  A    between atoms: _619  and  _621
REMARK  257  A    between atoms: _621  and  _622
REMARK  258  A    between atoms: _621  and  _624
REMARK  259  A    between atoms: _624  and  _625
REMARK  260  A    between atoms: _628  and  _630
REMARK  261  A    between atoms: _630  and  _631
REMARK  262  A    between atoms: _630  and  _633
REMARK  263  A    between atoms: _633  and  _634
REMARK  264  A    between atoms: _639  and  _640
REMARK  265  A    between atoms: _642  and  _644
REMARK  266  A    between atoms: _644  and  _645
REMARK  267  A    between atoms: _644  and  _647
REMARK  268  A    between atoms: _647  and  _648
REMARK  269  A    between atoms: _648  and  _649
REMARK  270  A    between atoms: _651  and  _653
REMARK  271  A    between atoms: _653  and  _654
REMARK  272  A    between atoms: _653  and  _656
REMARK  273  A    between atoms: _656  and  _657
REMARK  274  A    between atoms: _657  and  _658
REMARK  275  A    between atoms: _661  and  _663
REMARK  276  A    between atoms: _663  and  _664
REMARK  277  A    between atoms: _663  and  _666
REMARK  278  A    between atoms: _666  and  _667
REMARK  279  A    between atoms: _673  and  _675
REMARK  280  A    between atoms: _675  and  _676
REMARK  281  A    between atoms: _675  and  _678
REMARK  282  A    between atoms: _678  and  _679
REMARK  283  A    between atoms: _684  and  _686
REMARK  284  A    between atoms: _686  and  _687
REMARK  285  A    between atoms: _686  and  _689
REMARK  286  A    between atoms: _689  and  _690
REMARK  287  A    between atoms: _700  and  _702
REMARK  288  A    between atoms: _702  and  _703
REMARK  289  A    between atoms: _702  and  _705
REMARK  290  A    between atoms: _708  and  _710
REMARK  291  A    between atoms: _710  and  _711
REMARK  292  A    between atoms: _710  and  _713
REMARK  293  A    between atoms: _713  and  _714
REMARK  294  A    between atoms: _717  and  _719
REMARK  295  A    between atoms: _719  and  _720
REMARK  296  A    between atoms: _719  and  _722
REMARK  297  A    between atoms: _722  and  _723
REMARK  298  A    between atoms: _723  and  _724
REMARK  299  A    between atoms: _726  and  _728
REMARK  300  A    between atoms: _728  and  _729
REMARK  301  A    between atoms: _728  and  _731
REMARK  302  A    between atoms: _731  and  _732
REMARK  303  A    between atoms: _735  and  _737
REMARK  304  A    between atoms: _737  and  _738
REMARK  305  A    between atoms: _737  and  _740
REMARK  306  A    between atoms: _740  and  _741
REMARK  307  A    between atoms: _744  and  _746
REMARK  308  A    between atoms: _746  and  _747
REMARK  309  A    between atoms: _746  and  _749
REMARK  310  A    between atoms: _749  and  _750
REMARK  311  A    between atoms: _753  and  _755
REMARK  312  A    between atoms: _755  and  _756
REMARK  313  A    between atoms: _755  and  _758
REMARK  314  A    between atoms: _758  and  _759
REMARK  315  A    between atoms: _762  and  _764
REMARK  316  A    between atoms: _764  and  _765
REMARK  317  A    between atoms: _767  and  _769
REMARK  318  A    between atoms: _769  and  _770
REMARK  319  A    between atoms: _769  and  _772
REMARK  320  A    between atoms: _772  and  _773
REMARK  321  A    between atoms: _775  and  _777
REMARK  322  A    between atoms: _777  and  _778
REMARK  323  A    between atoms: _777  and  _780
REMARK  324  A    between atoms: _780  and  _781
REMARK  325  A    between atoms: _791  and  _793
REMARK  326  A    between atoms: _793  and  _794
REMARK  327  A    between atoms: _793  and  _796
REMARK  328  A    between atoms: _796  and  _797
REMARK  329  A    between atoms: _799  and  _801
REMARK  330  A    between atoms: _801  and  _802
REMARK  331  A    between atoms: _801  and  _804
REMARK  332  A    between atoms: _804  and  _805
REMARK  333  A    between atoms: _808  and  _810
REMARK  334  A    between atoms: _810  and  _811
REMARK  335  A    between atoms: _814  and  _816
REMARK  336  A    between atoms: _816  and  _817
REMARK  337  A    between atoms: _816  and  _819
REMARK  338  A    between atoms: _819  and  _820
REMARK  339  A    between atoms: _822  and  _824
REMARK  340  A    between atoms: _824  and  _825
REMARK  341  A    between atoms: _824  and  _827
REMARK  342  A    between atoms: _827  and  _828
REMARK  343  A    between atoms: _828  and  _829
REMARK  344  A    between atoms: _832  and  _834
REMARK  345  A    between atoms: _834  and  _835
REMARK  346  A    between atoms: _834  and  _837
REMARK  347  A    between atoms: _837  and  _838
REMARK  348  A    between atoms: _840  and  _842
REMARK  349  A    between atoms: _842  and  _843
REMARK  350  A    between atoms: _842  and  _845
REMARK  351  A    between atoms: _845  and  _846
REMARK  352  A    between atoms: _846  and  _847
REMARK  353  A    between atoms: _852  and  _854
REMARK  354  A    between atoms: _854  and  _855
REMARK  355  A    between atoms: _854  and  _857
REMARK  356  A    between atoms: _857  and  _858
REMARK  357  A    between atoms: _858  and  _859
REMARK  358  A    between atoms: _864  and  _866
REMARK  359  A    between atoms: _866  and  _867
REMARK  360  A    between atoms: _866  and  _869
REMARK  361  A    between atoms: _869  and  _870
REMARK  362  A    between atoms: _873  and  _875
REMARK  363  A    between atoms: _875  and  _876
REMARK  364  A    between atoms: _875  and  _878
REMARK  365  A    between atoms: _878  and  _879
REMARK  366  A    between atoms: _882  and  _884
REMARK  367  A    between atoms: _884  and  _885
REMARK  368  A    between atoms: _884  and  _887
REMARK  369  A    between atoms: _887  and  _888
REMARK  370  A    between atoms: _895  and  _896
REMARK  371  A    between atoms: _901  and  _903
REMARK  372  A    between atoms: _903  and  _904
REMARK  373  A    between atoms: _903  and  _906
REMARK  374  A    between atoms: _906  and  _907
REMARK  375  A    between atoms: _912  and  _913
REMARK  376  A    between atoms: _915  and  _917
REMARK  377  A    between atoms: _917  and  _918
REMARK  378  A    between atoms: _917  and  _920
REMARK  379  A    between atoms: _920  and  _921
REMARK  380  A    between atoms: _926  and  _928
REMARK  381  A    between atoms: _928  and  _929
REMARK  382  A    between atoms: _928  and  _931
REMARK  383  A    between atoms: _931  and  _932
REMARK  384  A    between atoms: _938  and  _940
REMARK  385  A    between atoms: _940  and  _941
REMARK  386  A    between atoms: _940  and  _943
REMARK  387  A    between atoms: _943  and  _944
REMARK  388  A    between atoms: _947  and  _949
REMARK  389  A    between atoms: _949  and  _950
REMARK  390  A    between atoms: _949  and  _952
REMARK  391  A    between atoms: _952  and  _953
REMARK  392  A    between atoms: _958  and  _960
REMARK  393  A    between atoms: _960  and  _961
REMARK  394  A    between atoms: _960  and  _963
REMARK  395  A    between atoms: _963  and  _964
REMARK  396  A    between atoms: _970  and  _972
REMARK  397  A    between atoms: _972  and  _973
REMARK  398  A    between atoms: _972  and  _975
REMARK  399  A    between atoms: _975  and  _976
REMARK  400  A    between atoms: _976  and  _977
REMARK  401  A    between atoms: _979  and  _981
REMARK  402  A    between atoms: _981  and  _982
REMARK  403  A    between atoms: _981  and  _984
REMARK  404  A    between atoms: _984  and  _985
REMARK  405  A    between atoms: _988  and  _990
REMARK  406  A    between atoms: _990  and  _991
REMARK  407  A    between atoms: _990  and  _993
REMARK  408  A    between atoms: _993  and  _994
REMARK  409  A    between atoms: _999  and  _1001
REMARK  410  A    between atoms: _1001  and  _1002
REMARK  411  A    between atoms: _1001  and  _1004
REMARK  412  A    between atoms: _1004  and  _1005
REMARK  413  A    between atoms: _1010  and  _1011
REMARK                            x       y       z     vdW  Elec       q    Type
REMARK                         _______ _______ _______ _____ _____    ______ ____
ROOT
ATOM      1  CA  VAL A   4     -13.029 -24.597  27.189  0.00  0.00    +0.149 C 
ENDROOT
BRANCH   1   2
ATOM      2  C   VAL A   4     -14.247 -25.466  27.530  0.00  0.00    +0.241 C 
ATOM      3  O   VAL A   4     -14.397 -25.922  28.667  0.00  0.00    -0.273 OA
ATOM      4  N   SER A   5     -15.112 -25.676  26.539  0.00  0.00    -0.295 N 
ATOM      5  H   SER A   5     -14.887 -25.300  25.596  0.00  0.00    +0.150 HD
BRANCH   4   6
ATOM      6  CA  SER A   5     -16.366 -26.412  26.716  0.00  0.00    +0.178 C 
BRANCH   6   7
ATOM      7  C   SER A   5     -16.187 -27.868  27.155  0.00  0.00    +0.243 C 
ATOM      8  O   SER A   5     -17.041 -28.414  27.854  0.00  0.00    -0.273 OA
ATOM      9  N   SER A   6     -15.076 -28.483  26.751  0.00  0.00    -0.295 N 
ATOM     10  H   SER A   6     -14.370 -27.940  26.214  0.00  0.00    +0.150 HD
BRANCH   9  11
ATOM     11  CA  SER A   6     -14.813 -29.896  27.036  0.00  0.00    +0.178 C 
BRANCH  11  12
ATOM     12  C   SER A   6     -14.550 -30.208  28.515  0.00  0.00    +0.243 C 
ATOM     13  N   GLN A   7     -14.306 -29.172  29.316  0.00  0.00    -0.298 N 
ATOM     14  H   GLN A   7     -14.325 -28.211  28.918  0.00  0.00    +0.150 HD
ATOM     15  O   SER A   6     -14.574 -31.373  28.917  0.00  0.00    -0.273 OA
BRANCH  13  16
ATOM     16  CA  GLN A   7     -14.011 -29.345  30.742  0.00  0.00    +0.137 C 
BRANCH  16  17
ATOM     17  C   GLN A   7     -15.231 -29.158  31.647  0.00  0.00    +0.227 C 
ATOM     18  O   GLN A   7     -15.166 -29.457  32.842  0.00  0.00    -0.286 OA
ENDBRANCH  16  17
BRANCH  16  19
ATOM     19  CB  GLN A   7     -12.881 -28.405  31.180  0.00  0.00    +0.037 C 
BRANCH  19  20
ATOM     20  CG  GLN A   7     -11.512 -28.769  30.621  0.00  0.00    +0.087 C 
BRANCH  20  21
ATOM     21  CD  GLN A   7     -10.413 -27.814  31.058  0.00  0.00    +0.219 C 
ATOM     22  OE1 GLN A   7     -10.652 -26.628  31.286  0.00  0.00    -0.275 OA
ATOM     23  NE2 GLN A   7      -9.197 -28.331  31.169  0.00  0.00    -0.329 N 
ATOM     24 HE21 GLN A   7      -8.400 -27.729  31.459  0.00  0.00    +0.145 HD
ATOM     25 HE22 GLN A   7      -9.040 -29.339  30.967  0.00  0.00    +0.145 HD
ENDBRANCH  20  21
ENDBRANCH  19  20
ENDBRANCH  16  19
ENDBRANCH  13  16
ENDBRANCH  11  12
BRANCH  11  26
ATOM     26  CB  SER A   6     -13.653 -30.408  26.176  0.00  0.00    +0.166 C 
BRANCH  26  27
ATOM     27  OG  SER A   6     -12.439 -29.756  26.504  0.00  0.00    -0.380 OA
ATOM     28  H   SER A   6     -11.712 -30.108  25.932  0.00  0.00    +0.211 HD
ENDBRANCH  26  27
ENDBRANCH  11  26
ENDBRANCH   9  11
ENDBRANCH   6   7
BRANCH   6  29
ATOM     29  CB  SER A   5     -17.202 -26.355  25.432  0.00  0.00    +0.166 C 
BRANCH  29  30
ATOM     30  OG  SER A   5     -16.510 -26.939  24.341  0.00  0.00    -0.380 OA
ATOM     31  H   SER A   5     -17.073 -26.887  23.529  0.00  0.00    +0.211 HD
ENDBRANCH  29  30
ENDBRANCH   6  29
ENDBRANCH   4   6
ENDBRANCH   1   2
BRANCH   1  34
ATOM     32  C   MET A   3     -13.280 -22.881  28.918  0.00  0.00    +0.241 C 
ATOM     33  O   MET A   3     -14.391 -22.530  28.509  0.00  0.00    -0.273 OA
ATOM     34  N   VAL A   4     -12.568 -23.856  28.360  0.00  0.00    -0.297 N 
ATOM     35  H   VAL A   4     -11.646 -24.101  28.774  0.00  0.00    +0.150 HD
BRANCH  32  36
ATOM     36  CA  MET A   3     -12.635 -22.193  30.119  0.00  0.00    +0.149 C 
BRANCH  36  38
ATOM     37  C   GLY A   2     -12.305 -19.915  29.308  0.00  0.00    +0.243 C 
ATOM     38  N   MET A   3     -12.923 -20.760  30.130  0.00  0.00    -0.297 N 
ATOM     39  H   MET A   3     -13.630 -20.391  30.798  0.00  0.00    +0.150 HD
ATOM     40  O   GLY A   2     -11.422 -20.264  28.524  0.00  0.00    -0.273 OA
BRANCH  37  41
ATOM     41  CA  GLY A   2     -12.742 -18.465  29.372  0.00  0.00    +0.176 C 
BRANCH  41  44
ATOM     42  C   ASN A   1     -12.028 -17.795  31.622  0.00  0.00    +0.239 C 
ATOM     43  O   ASN A   1     -10.856 -18.133  31.437  0.00  0.00    -0.274 OA
ATOM     44  N   GLY A   2     -12.994 -17.959  30.719  0.00  0.00    -0.296 N 
ATOM     45  H   GLY A   2     -13.970 -17.716  30.985  0.00  0.00    +0.150 HD
BRANCH  42  46
ATOM     46  CA  ASN A   1     -12.453 -17.146  32.933  0.00  0.00    +0.154 C 
BRANCH  46  47
ATOM     47  N   ASN A   1     -11.703 -17.635  34.088  0.00  0.00    -0.238 NA
ATOM     48  H   ASN A   1     -10.748 -17.261  34.260  0.00  0.00    +0.142 HD
ENDBRANCH  46  47
BRANCH  46  49
ATOM     49  CB  ASN A   1     -12.323 -15.626  32.816  0.00  0.00    +0.111 C 
BRANCH  49  50
ATOM     50  CG  ASN A   1     -13.037 -14.891  33.931  0.00  0.00    +0.221 C 
ATOM     51  OD1 ASN A   1     -12.406 -14.232  34.753  0.00  0.00    -0.275 OA
ATOM     52  ND2 ASN A   1     -14.360 -15.006  33.967  0.00  0.00    -0.329 N 
ATOM     53 HD21 ASN A   1     -14.904 -14.527  34.713  0.00  0.00    +0.145 HD
ATOM     54 HD22 ASN A   1     -14.852 -15.575  33.249  0.00  0.00    +0.145 HD
ENDBRANCH  49  50
ENDBRANCH  46  49
ENDBRANCH  42  46
ENDBRANCH  41  44
ENDBRANCH  37  41
ENDBRANCH  36  38
BRANCH  36  55
ATOM     55  CB  MET A   3     -13.077 -22.858  31.428  0.00  0.00    +0.041 C 
BRANCH  55  56
ATOM     56  CG  MET A   3     -12.215 -22.480  32.626  0.00  0.00    +0.060 C 
BRANCH  56  57
ATOM     57  SD  MET A   3     -12.597 -23.371  34.147  0.00  0.00    -0.139 S 
ATOM     58  CE  MET A   3     -11.832 -24.958  33.838  0.00  0.00    +0.069 C 
ENDBRANCH  56  57
ENDBRANCH  55  56
ENDBRANCH  36  55
ENDBRANCH  32  36
ENDBRANCH   1  34
BRANCH   1  59
ATOM     59  CB  VAL A   4     -11.870 -25.421  26.553  0.00  0.00    +0.027 C 
ATOM     60  CG2 VAL A   4     -11.456 -26.589  27.448  0.00  0.00    +0.002 C 
ATOM     61  CG1 VAL A   4     -12.234 -25.893  25.147  0.00  0.00    +0.002 C 
ENDBRANCH   1  59
TORSDOF 27
REMARK  Name = ../refined-set-2016/3drg/3drg_pocket.pdb
REMARK  413 active torsions:
REMARK  status: ('A' for Active; 'I' for Inactive)
REMARK    1  A    between atoms: _1  and  _3
REMARK    2  A    between atoms: _3  and  _4
REMARK    3  A    between atoms: _3  and  _6
REMARK    4  A    between atoms: _6  and  _7
REMARK    5  A    between atoms: _12  and  _13
REMARK    6  A    between atoms: _15  and  _17
REMARK    7  A    between atoms: _17  and  _18
REMARK    8  A    between atoms: _17  and  _20
REMARK    9  A    between atoms: _20  and  _21
REMARK   10  A    between atoms: _21  and  _22
REMARK   11  A    between atoms: _27  and  _29
REMARK   12  A    between atoms: _29  and  _30
REMARK   13  A    between atoms: _29  and  _32
REMARK   14  A    between atoms: _32  and  _33
REMARK   15  A    between atoms: _35  and  _37
REMARK   16  A    between atoms: _37  and  _38
REMARK   17  A    between atoms: _37  and  _40
REMARK   18  A    between atoms: _40  and  _41
REMARK   19  A    between atoms: _44  and  _46
REMARK   20  A    between atoms: _46  and  _47
REMARK   21  A    between atoms: _46  and  _49
REMARK   22  A    between atoms: _49  and  _50
REMARK   23  A    between atoms: _52  and  _54
REMARK   24  A    between atoms: _54  and  _55
REMARK   25  A    between atoms: _54  and  _57
REMARK   26  A    between atoms: _57  and  _58
REMARK   27  A    between atoms: _61  and  _63
REMARK   28  A    between atoms: _63  and  _64
REMARK   29  A    between atoms: _63  and  _66
REMARK   30  A    between atoms: _66  and  _67
REMARK   31  A    between atoms: _69  and  _71
REMARK   32  A    between atoms: _71  and  _72
REMARK   33  A    between atoms: _74  and  _76
REMARK   34  A    between atoms: _76  and  _77
REMARK   35  A    between atoms: _76  and  _79
REMARK   36  A    between atoms: _79  and  _80
REMARK   37  A    between atoms: _82  and  _84
REMARK   38  A    between atoms: _84  and  _85
REMARK   39  A    between atoms: _84  and  _87
REMARK   40  A    between atoms: _87  and  _88
REMARK   41  A    between atoms: _93  and  _95
REMARK   42  A    between atoms: _95  and  _96
REMARK   43  A    between atoms: _95  and  _98
REMARK   44  A    between atoms: _98  and  _99
REMARK   45  A    between atoms: _102  and  _104
REMARK   46  A    between atoms: _104  and  _105
REMARK   47  A    between atoms: _108  and  _110
REMARK   48  A    between atoms: _110  and  _111
REMARK   49  A    between atoms: _110  and  _113
REMARK   50  A    between atoms: _113  and  _114
REMARK   51  A    between atoms: _117  and  _119
REMARK   52  A    between atoms: _119  and  _120
REMARK   53  A    between atoms: _119  and  _122
REMARK   54  A    between atoms: _122  and  _123
REMARK   55  A    between atoms: _129  and  _131
REMARK   56  A    between atoms: _131  and  _132
REMARK   57  A    between atoms: _135  and  _137
REMARK   58  A    between atoms: _137  and  _138
REMARK   59  A    between atoms: _137  and  _140
REMARK   60  A    between atoms: _140  and  _141
REMARK   61  A    between atoms: _144  and  _146
REMARK   62  A    between atoms: _146  and  _147
REMARK   63  A    between atoms: _146  and  _149
REMARK   64  A    between atoms: _149  and  _150
REMARK   65  A    between atoms: _152  and  _154
REMARK   66  A    between atoms: _154  and  _155
REMARK   67  A    between atoms: _157  and  _159
REMARK   68  A    between atoms: _159  and  _160
REMARK   69  A    between atoms: _162  and  _164
REMARK   70  A    between atoms: _164  and  _165
REMARK   71  A    between atoms: _164  and  _167
REMARK   72  A    between atoms: _167  and  _168
REMARK   73  A    between atoms: _168  and  _169
REMARK   74  A    between atoms: _174  and  _176
REMARK   75  A    between atoms: _176  and  _177
REMARK   76  A    between atoms: _176  and  _179
REMARK   77  A    between atoms: _179  and  _180
REMARK   78  A    between atoms: _183  and  _185
REMARK   79  A    between atoms: _185  and  _186
REMARK   80  A    between atoms: _188  and  _190
REMARK   81  A    between atoms: _190  and  _191
REMARK   82  A    between atoms: _190  and  _193
REMARK   83  A    between atoms: _193  and  _194
REMARK   84  A    between atoms: _197  and  _199
REMARK   85  A    between atoms: _199  and  _200
REMARK   86  A    between atoms: _199  and  _202
REMARK   87  A    between atoms: _202  and  _203
REMARK   88  A    between atoms: _209  and  _211
REMARK   89  A    between atoms: _211  and  _212
REMARK   90  A    between atoms: _211  and  _214
REMARK   91  A    between atoms: _214  and  _215
REMARK   92  A    between atoms: _218  and  _220
REMARK   93  A    between atoms: _220  and  _221
REMARK   94  A    between atoms: _220  and  _223
REMARK   95  A    between atoms: _223  and  _224
REMARK   96  A    between atoms: _230  and  _232
REMARK   97  A    between atoms: _232  and  _233
REMARK   98  A    between atoms: _232  and  _235
REMARK   99  A    between atoms: _235  and  _236
REMARK  100  A    between atoms: _242  and  _244
REMARK  101  A    between atoms: _244  and  _245
REMARK  102  A    between atoms: _244  and  _247
REMARK  103  A    between atoms: _247  and  _248
REMARK  104  A    between atoms: _251  and  _253
REMARK  105  A    between atoms: _253  and  _254
REMARK  106  A    between atoms: _253  and  _256
REMARK  107  A    between atoms: _256  and  _257
REMARK  108  A    between atoms: _260  and  _262
REMARK  109  A    between atoms: _262  and  _263
REMARK  110  A    between atoms: _262  and  _265
REMARK  111  A    between atoms: _265  and  _266
REMARK  112  A    between atoms: _266  and  _267
REMARK  113  A    between atoms: _267  and  _268
REMARK  114  A    between atoms: _277  and  _279
REMARK  115  A    between atoms: _279  and  _280
REMARK  116  A    between atoms: _279  and  _282
REMARK  117  A    between atoms: _282  and  _283
REMARK  118  A    between atoms: _286  and  _288
REMARK  119  A    between atoms: _288  and  _289
REMARK  120  A    between atoms: _288  and  _291
REMARK  121  A    between atoms: _291  and  _292
REMARK  122  A    between atoms: _292  and  _293
REMARK  123  A    between atoms: _298  and  _300
REMARK  124  A    between atoms: _300  and  _301
REMARK  125  A    between atoms: _300  and  _303
REMARK  126  A    between atoms: _303  and  _304
REMARK  127  A    between atoms: _306  and  _308
REMARK  128  A    between atoms: _308  and  _309
REMARK  129  A    between atoms: _311  and  _313
REMARK  130  A    between atoms: _313  and  _314
REMARK  131  A    between atoms: _313  and  _316
REMARK  132  A    between atoms: _316  and  _317
REMARK  133  A    between atoms: _322  and  _324
REMARK  134  A    between atoms: _324  and  _325
REMARK  135  A    between atoms: _327  and  _329
REMARK  136  A    between atoms: _329  and  _330
REMARK  137  A    between atoms: _329  and  _332
REMARK  138  A    between atoms: _332  and  _333
REMARK  139  A    between atoms: _339  and  _341
REMARK  140  A    between atoms: _341  and  _342
REMARK  141  A    between atoms: _341  and  _344
REMARK  142  A    between atoms: _344  and  _345
REMARK  143  A    between atoms: _348  and  _350
REMARK  144  A    between atoms: _350  and  _351
REMARK  145  A    between atoms: _350  and  _353
REMARK  146  A    between atoms: _353  and  _354
REMARK  147  A    between atoms: _354  and  _355
REMARK  148  A    between atoms: _358  and  _360
REMARK  149  A    between atoms: _360  and  _361
REMARK  150  A    between atoms: _360  and  _363
REMARK  151  A    between atoms: _363  and  _364
REMARK  152  A    between atoms: _367  and  _369
REMARK  153  A    between atoms: _369  and  _370
REMARK  154  A    between atoms: _369  and  _372
REMARK  155  A    between atoms: _375  and  _377
REMARK  156  A    between atoms: _377  and  _378
REMARK  157  A    between atoms: _377  and  _380
REMARK  158  A    between atoms: _380  and  _381
REMARK  159  A    between atoms: _384  and  _386
REMARK  160  A    between atoms: _386  and  _387
REMARK  161  A    between atoms: _386  and  _389
REMARK  162  A    between atoms: _389  and  _390
REMARK  163  A    between atoms: _395  and  _397
REMARK  164  A    between atoms: _397  and  _398
REMARK  165  A    between atoms: _400  and  _402
REMARK  166  A    between atoms: _402  and  _403
REMARK  167  A    between atoms: _402  and  _405
REMARK  168  A    between atoms: _405  and  _406
REMARK  169  A    between atoms: _406  and  _407
REMARK  170  A    between atoms: _409  and  _411
REMARK  171  A    between atoms: _411  and  _412
REMARK  172  A    between atoms: _411  and  _414
REMARK  173  A    between atoms: _417  and  _419
REMARK  174  A    between atoms: _419  and  _420
REMARK  175  A    between atoms: _419  and  _422
REMARK  176  A    between atoms: _422  and  _423
REMARK  177  A    between atoms: _425  and  _427
REMARK  178  A    between atoms: _427  and  _428
REMARK  179  A    between atoms: _427  and  _430
REMARK  180  A    between atoms: _430  and  _431
REMARK  181  A    between atoms: _433  and  _435
REMARK  182  A    between atoms: _435  and  _436
REMARK  183  A    between atoms: _435  and  _438
REMARK  184  A    between atoms: _438  and  _439
REMARK  185  A    between atoms: _439  and  _440
REMARK  186  A    between atoms: _445  and  _447
REMARK  187  A    between atoms: _447  and  _448
REMARK  188  A    between atoms: _451  and  _453
REMARK  189  A    between atoms: _453  and  _454
REMARK  190  A    between atoms: _453  and  _456
REMARK  191  A    between atoms: _456  and  _457
REMARK  192  A    between atoms: _457  and  _458
REMARK  193  A    between atoms: _460  and  _462
REMARK  194  A    between atoms: _462  and  _463
REMARK  195  A    between atoms: _462  and  _465
REMARK  196  A    between atoms: _465  and  _466
REMARK  197  A    between atoms: _471  and  _472
REMARK  198  A    between atoms: _474  and  _476
REMARK  199  A    between atoms: _476  and  _477
REMARK  200  A    between atoms: _476  and  _479
REMARK  201  A    between atoms: _479  and  _480
REMARK  202  A    between atoms: _483  and  _485
REMARK  203  A    between atoms: _485  and  _486
REMARK  204  A    between atoms: _485  and  _488
REMARK  205  A    between atoms: _488  and  _489
REMARK  206  A    between atoms: _491  and  _493
REMARK  207  A    between atoms: _493  and  _494
REMARK  208  A    between atoms: _493  and  _496
REMARK  209  A    between atoms: _496  and  _497
REMARK  210  A    between atoms: _500  and  _502
REMARK  211  A    between atoms: _502  and  _503
REMARK  212  A    between atoms: _502  and  _505
REMARK  213  A    between atoms: _505  and  _506
REMARK  214  A    between atoms: _506  and  _507
REMARK  215  A    between atoms: _509  and  _511
REMARK  216  A    between atoms: _511  and  _512
REMARK  217  A    between atoms: _511  and  _514
REMARK  218  A    between atoms: _514  and  _515
REMARK  219  A    between atoms: _520  and  _521
REMARK  220  A    between atoms: _523  and  _525
REMARK  221  A    between atoms: _525  and  _526
REMARK  222  A    between atoms: _525  and  _528
REMARK  223  A    between atoms: _528  and  _529
REMARK  224  A    between atoms: _529  and  _530
REMARK  225  A    between atoms: _530  and  _531
REMARK  226  A    between atoms: _540  and  _542
REMARK  227  A    between atoms: _542  and  _543
REMARK  228  A    between atoms: _542  and  _545
REMARK  229  A    between atoms: _545  and  _546
REMARK  230  A    between atoms: _548  and  _550
REMARK  231  A    between atoms: _550  and  _551
REMARK  232  A    between atoms: _550  and  _553
REMARK  233  A    between atoms: _553  and  _554
REMARK  234  A    between atoms: _559  and  _560
REMARK  235  A    between atoms: _562  and  _564
REMARK  236  A    between atoms: _564  and  _565
REMARK  237  A    between atoms: _568  and  _570
REMARK  238  A    between atoms: _570  and  _571
REMARK  239  A    between atoms: _574  and  _576
REMARK  240  A    between atoms: _576  and  _577
REMARK  241  A    between atoms: _576  and  _579
REMARK  242  A    between atoms: _579  and  _580
REMARK  243  A    between atoms: _580  and  _581
REMARK  244  A    between atoms: _581  and  _582
REMARK  245  A    between atoms: _591  and  _593
REMARK  246  A    between atoms: _593  and  _594
REMARK  247  A    between atoms: _593  and  _596
REMARK  248  A    between atoms: _599  and  _601
REMARK  249  A    between atoms: _601  and  _602
REMARK  250  A    between atoms: _604  and  _606
REMARK  251  A    between atoms: _606  and  _607
REMARK  252  A    between atoms: _606  and  _609
REMARK  253  A    between atoms: _609  and  _610
REMARK  254  A    between atoms: _613  and  _615
REMARK  255  A    between atoms: _615  and  _616
REMARK  256  A    between atoms: _619  and  _621
REMARK  257  A    between atoms: _621  and  _622
REMARK  258  A    between atoms: _621  and  _624
REMARK  259  A    between atoms: _624  and  _625
REMARK  260  A    between atoms: _628  and  _630
REMARK  261  A    between atoms: _630  and  _631
REMARK  262  A    between atoms: _630  and  _633
REMARK  263  A    between atoms: _633  and  _634
REMARK  264  A    between atoms: _639  and  _640
REMARK  265  A    between atoms: _642  and  _644
REMARK  266  A    between atoms: _644  and  _645
REMARK  267  A    between atoms: _644  and  _647
REMARK  268  A    between atoms: _647  and  _648
REMARK  269  A    between atoms: _648  and  _649
REMARK  270  A    between atoms: _651  and  _653
REMARK  271  A    between atoms: _653  and  _654
REMARK  272  A    between atoms: _653  and  _656
REMARK  273  A    between atoms: _656  and  _657
REMARK  274  A    between atoms: _657  and  _658
REMARK  275  A    between atoms: _661  and  _663
REMARK  276  A    between atoms: _663  and  _664
REMARK  277  A    between atoms: _663  and  _666
REMARK  278  A    between atoms: _666  and  _667
REMARK  279  A    between atoms: _673  and  _675
REMARK  280  A    between atoms: _675  and  _676
REMARK  281  A    between atoms: _675  and  _678
REMARK  282  A    between atoms: _678  and  _679
REMARK  283  A    between atoms: _684  and  _686
REMARK  284  A    between atoms: _686  and  _687
REMARK  285  A    between atoms: _686  and  _689
REMARK  286  A    between atoms: _689  and  _690
REMARK  287  A    between atoms: _700  and  _702
REMARK  288  A    between atoms: _702  and  _703
REMARK  289  A    between atoms: _702  and  _705
REMARK  290  A    between atoms: _708  and  _710
REMARK  291  A    between atoms: _710  and  _711
REMARK  292  A    between atoms: _710  and  _713
REMARK  293  A    between atoms: _713  and  _714
REMARK  294  A    between atoms: _717  and  _719
REMARK  295  A    between atoms: _719  and  _720
REMARK  296  A    between atoms: _719  and  _722
REMARK  297  A    between atoms: _722  and  _723
REMARK  298  A    between atoms: _723  and  _724
REMARK  299  A    between atoms: _726  and  _728
REMARK  300  A    between atoms: _728  and  _729
REMARK  301  A    between atoms: _728  and  _731
REMARK  302  A    between atoms: _731  and  _732
REMARK  303  A    between atoms: _735  and  _737
REMARK  304  A    between atoms: _737  and  _738
REMARK  305  A    between atoms: _737  and  _740
REMARK  306  A    between atoms: _740  and  _741
REMARK  307  A    between atoms: _744  and  _746
REMARK  308  A    between atoms: _746  and  _747
REMARK  309  A    between atoms: _746  and  _749
REMARK  310  A    between atoms: _749  and  _750
REMARK  311  A    between atoms: _753  and  _755
REMARK  312  A    between atoms: _755  and  _756
REMARK  313  A    between atoms: _755  and  _758
REMARK  314  A    between atoms: _758  and  _759
REMARK  315  A    between atoms: _762  and  _764
REMARK  316  A    between atoms: _764  and  _765
REMARK  317  A    between atoms: _767  and  _769
REMARK  318  A    between atoms: _769  and  _770
REMARK  319  A    between atoms: _769  and  _772
REMARK  320  A    between atoms: _772  and  _773
REMARK  321  A    between atoms: _775  and  _777
REMARK  322  A    between atoms: _777  and  _778
REMARK  323  A    between atoms: _777  and  _780
REMARK  324  A    between atoms: _780  and  _781
REMARK  325  A    between atoms: _791  and  _793
REMARK  326  A    between atoms: _793  and  _794
REMARK  327  A    between atoms: _793  and  _796
REMARK  328  A    between atoms: _796  and  _797
REMARK  329  A    between atoms: _799  and  _801
REMARK  330  A    between atoms: _801  and  _802
REMARK  331  A    between atoms: _801  and  _804
REMARK  332  A    between atoms: _804  and  _805
REMARK  333  A    between atoms: _808  and  _810
REMARK  334  A    between atoms: _810  and  _811
REMARK  335  A    between atoms: _814  and  _816
REMARK  336  A    between atoms: _816  and  _817
REMARK  337  A    between atoms: _816  and  _819
REMARK  338  A    between atoms: _819  and  _820
REMARK  339  A    between atoms: _822  and  _824
REMARK  340  A    between atoms: _824  and  _825
REMARK  341  A    between atoms: _824  and  _827
REMARK  342  A    between atoms: _827  and  _828
REMARK  343  A    between atoms: _828  and  _829
REMARK  344  A    between atoms: _832  and  _834
REMARK  345  A    between atoms: _834  and  _835
REMARK  346  A    between atoms: _834  and  _837
REMARK  347  A    between atoms: _837  and  _838
REMARK  348  A    between atoms: _840  and  _842
REMARK  349  A    between atoms: _842  and  _843
REMARK  350  A    between atoms: _842  and  _845
REMARK  351  A    between atoms: _845  and  _846
REMARK  352  A    between atoms: _846  and  _847
REMARK  353  A    between atoms: _852  and  _854
REMARK  354  A    between atoms: _854  and  _855
REMARK  355  A    between atoms: _854  and  _857
REMARK  356  A    between atoms: _857  and  _858
REMARK  357  A    between atoms: _858  and  _859
REMARK  358  A    between atoms: _864  and  _866
REMARK  359  A    between atoms: _866  and  _867
REMARK  360  A    between atoms: _866  and  _869
REMARK  361  A    between atoms: _869  and  _870
REMARK  362  A    between atoms: _873  and  _875
REMARK  363  A    between atoms: _875  and  _876
REMARK  364  A    between atoms: _875  and  _878
REMARK  365  A    between atoms: _878  and  _879
REMARK  366  A    between atoms: _882  and  _884
REMARK  367  A    between atoms: _884  and  _885
REMARK  368  A    between atoms: _884  and  _887
REMARK  369  A    between atoms: _887  and  _888
REMARK  370  A    between atoms: _895  and  _896
REMARK  371  A    between atoms: _901  and  _903
REMARK  372  A    between atoms: _903  and  _904
REMARK  373  A    between atoms: _903  and  _906
REMARK  374  A    between atoms: _906  and  _907
REMARK  375  A    between atoms: _912  and  _913
REMARK  376  A    between atoms: _915  and  _917
REMARK  377  A    between atoms: _917  and  _918
REMARK  378  A    between atoms: _917  and  _920
REMARK  379  A    between atoms: _920  and  _921
REMARK  380  A    between atoms: _926  and  _928
REMARK  381  A    between atoms: _928  and  _929
REMARK  382  A    between atoms: _928  and  _931
REMARK  383  A    between atoms: _931  and  _932
REMARK  384  A    between atoms: _938  and  _940
REMARK  385  A    between atoms: _940  and  _941
REMARK  386  A    between atoms: _940  and  _943
REMARK  387  A    between atoms: _943  and  _944
REMARK  388  A    between atoms: _947  and  _949
REMARK  389  A    between atoms: _949  and  _950
REMARK  390  A    between atoms: _949  and  _952
REMARK  391  A    between atoms: _952  and  _953
REMARK  392  A    between atoms: _958  and  _960
REMARK  393  A    between atoms: _960  and  _961
REMARK  394  A    between atoms: _960  and  _963
REMARK  395  A    between atoms: _963  and  _964
REMARK  396  A    between atoms: _970  and  _972
REMARK  397  A    between atoms: _972  and  _973
REMARK  398  A    between atoms: _972  and  _975
REMARK  399  A    between atoms: _975  and  _976
REMARK  400  A    between atoms: _976  and  _977
REMARK  401  A    between atoms: _979  and  _981
REMARK  402  A    between atoms: _981  and  _982
REMARK  403  A    between atoms: _981  and  _984
REMARK  404  A    between atoms: _984  and  _985
REMARK  405  A    between atoms: _988  and  _990
REMARK  406  A    between atoms: _990  and  _991
REMARK  407  A    between atoms: _990  and  _993
REMARK  408  A    between atoms: _993  and  _994
REMARK  409  A    between atoms: _999  and  _1001
REMARK  410  A    between atoms: _1001  and  _1002
REMARK  411  A    between atoms: _1001  and  _1004
REMARK  412  A    between atoms: _1004  and  _1005
REMARK  413  A    between atoms: _1010  and  _1011
REMARK                            x       y       z     vdW  Elec       q    Type
REMARK                         _______ _______ _______ _____ _____    ______ ____
ROOT
ATOM      1  C   ILE A   4     -16.315 -17.468  16.709  0.00  0.00    +0.241 C 
ATOM      2  O   ILE A   4     -15.300 -16.766  16.698  0.00  0.00    -0.273 OA
ATOM      3  N   SER A   5     -16.306 -18.762  16.411  0.00  0.00    -0.295 N 
ATOM      4  H   SER A   5     -17.138 -19.341  16.644  0.00  0.00    +0.150 HD
ENDROOT
BRANCH   1   5
ATOM      5  CA  ILE A   4     -17.665 -16.883  17.123  0.00  0.00    +0.149 C 
BRANCH   5   8
ATOM      6  C   TYR A   3     -18.420 -15.779  19.165  0.00  0.00    +0.241 C 
ATOM      7  O   TYR A   3     -19.586 -16.153  19.030  0.00  0.00    -0.273 OA
ATOM      8  N   ILE A   4     -17.480 -15.974  18.247  0.00  0.00    -0.297 N 
ATOM      9  H   ILE A   4     -16.580 -15.460  18.333  0.00  0.00    +0.150 HD
BRANCH   6  10
ATOM     10  CA  TYR A   3     -17.977 -15.029  20.415  0.00  0.00    +0.153 C 
BRANCH  10  13
ATOM     11  C   MET A   2     -18.898 -13.169  21.698  0.00  0.00    +0.241 C 
ATOM     12  O   MET A   2     -17.846 -12.527  21.707  0.00  0.00    -0.273 OA
ATOM     13  N   TYR A   3     -19.081 -14.263  20.965  0.00  0.00    -0.297 N 
ATOM     14  H   TYR A   3     -20.053 -14.583  20.778  0.00  0.00    +0.150 HD
BRANCH  11  15
ATOM     15  CA  MET A   2     -20.101 -12.749  22.538  0.00  0.00    +0.149 C 
BRANCH  15  17
ATOM     16  C   ALA A   1     -20.898 -14.888  23.423  0.00  0.00    +0.238 C 
ATOM     17  N   MET A   2     -20.262 -13.732  23.604  0.00  0.00    -0.297 N 
ATOM     18  H   MET A   2     -19.865 -13.522  24.542  0.00  0.00    +0.150 HD
ATOM     19  O   ALA A   1     -21.533 -15.162  22.400  0.00  0.00    -0.274 OA
BRANCH  16  20
ATOM     20  CA  ALA A   1     -20.813 -15.877  24.583  0.00  0.00    +0.145 C 
ATOM     21  CB  ALA A   1     -19.799 -16.970  24.281  0.00  0.00    +0.028 C 
BRANCH  20  22
ATOM     22  N   ALA A   1     -22.113 -16.461  24.892  0.00  0.00    -0.238 NA
ATOM     23  H   ALA A   1     -22.284 -17.461  24.664  0.00  0.00    +0.142 HD
ENDBRANCH  20  22
ENDBRANCH  16  20
ENDBRANCH  15  17
BRANCH  15  24
ATOM     24  CB  MET A   2     -19.902 -11.359  23.136  0.00  0.00    +0.041 C 
BRANCH  24  25
ATOM     25  CG  MET A   2     -20.135 -10.218  22.167  0.00  0.00    +0.060 C 
BRANCH  25  26
ATOM     26  SD  MET A   2     -20.516  -8.697  23.046  0.00  0.00    -0.139 S 
ATOM     27  CE  MET A   2     -18.984  -8.394  23.932  0.00  0.00    +0.069 C 
ENDBRANCH  25  26
ENDBRANCH  24  25
ENDBRANCH  15  24
ENDBRANCH  11  15
ENDBRANCH  10  13
BRANCH  10  28
ATOM     28  CB  TYR A   3     -17.467 -16.005  21.493  0.00  0.00    +0.055 C 
BRANCH  28  29
ATOM     29  CG  TYR A   3     -16.585 -17.143  21.018  0.00  0.00    -0.020 A 
ATOM     30  CD2 TYR A   3     -15.198 -17.059  21.106  0.00  0.00    -0.001 A 
ATOM     31  CE2 TYR A   3     -14.383 -18.107  20.676  0.00  0.00    +0.036 A 
ATOM     32  CZ  TYR A   3     -14.961 -19.258  20.165  0.00  0.00    +0.134 A 
ATOM     33  CE1 TYR A   3     -16.337 -19.369  20.078  0.00  0.00    +0.036 A 
ATOM     34  CD1 TYR A   3     -17.142 -18.318  20.511  0.00  0.00    -0.001 A 
BRANCH  32  35
ATOM     35  OH  TYR A   3     -14.167 -20.300  19.742  0.00  0.00    -0.506 OA
ATOM     36  HH  TYR A   3     -13.215 -20.061  19.871  0.00  0.00    +0.292 HD
ENDBRANCH  32  35
ENDBRANCH  28  29
ENDBRANCH  10  28
ENDBRANCH   6  10
ENDBRANCH   5   8
BRANCH   5  37
ATOM     37  CB  ILE A   4     -18.397 -16.210  15.912  0.00  0.00    +0.027 C 
ATOM     38  CG2 ILE A   4     -17.563 -15.070  15.312  0.00  0.00    +0.002 C 
BRANCH  37  39
ATOM     39  CG1 ILE A   4     -18.771 -17.263  14.858  0.00  0.00    +0.002 C 
ATOM     40  CD1 ILE A   4     -19.750 -16.789  13.802  0.00  0.00    +0.000 C 
ENDBRANCH  37  39
ENDBRANCH   5  37
ENDBRANCH   1   5
BRANCH   3  41
ATOM     41  CA  SER A   5     -15.164 -19.391  15.767  0.00  0.00    +0.178 C 
BRANCH  41  42
ATOM     42  C   SER A   5     -15.542 -19.665  14.321  0.00  0.00    +0.243 C 
ATOM     43  O   SER A   5     -16.663 -20.098  14.041  0.00  0.00    -0.273 OA
ATOM     44  N   LEU A   6     -14.620 -19.387  13.404  0.00  0.00    -0.297 N 
ATOM     45  H   LEU A   6     -13.714 -18.973  13.702  0.00  0.00    +0.150 HD
BRANCH  44  46
ATOM     46  CA  LEU A   6     -14.855 -19.652  11.987  0.00  0.00    +0.149 C 
BRANCH  46  47
ATOM     47  C   LEU A   6     -13.590 -20.046  11.211  0.00  0.00    +0.241 C 
ATOM     48  O   LEU A   6     -12.469 -19.814  11.670  0.00  0.00    -0.273 OA
ATOM     49  N   MET A   7     -13.788 -20.653  10.044  0.00  0.00    -0.297 N 
ATOM     50  H   MET A   7     -14.764 -20.783   9.708  0.00  0.00    +0.150 HD
BRANCH  49  51
ATOM     51  CA  MET A   7     -12.691 -21.144   9.216  0.00  0.00    +0.149 C 
BRANCH  51  52
ATOM     52  C   MET A   7     -12.305 -20.122   8.141  0.00  0.00    +0.241 C 
ATOM     53  N   TYR A   8     -11.021 -19.764   8.110  0.00  0.00    -0.298 N 
ATOM     54  H   TYR A   8     -10.362 -20.224   8.770  0.00  0.00    +0.150 HD
ATOM     55  O   MET A   7     -13.152 -19.673   7.368  0.00  0.00    -0.273 OA
BRANCH  53  56
ATOM     56  CA  TYR A   8     -10.495 -18.752   7.189  0.00  0.00    +0.141 C 
BRANCH  56  57
ATOM     57  C   TYR A   8      -9.759 -19.368   6.005  0.00  0.00    +0.227 C 
ATOM     58  O   TYR A   8      -9.094 -20.396   6.145  0.00  0.00    -0.286 OA
ENDBRANCH  56  57
BRANCH  56  59
ATOM     59  CB  TYR A   8      -9.527 -17.818   7.920  0.00  0.00    +0.054 C 
BRANCH  59  60
ATOM     60  CG  TYR A   8     -10.175 -16.717   8.728  0.00  0.00    -0.020 A 
ATOM     61  CD2 TYR A   8     -10.650 -16.960  10.012  0.00  0.00    -0.001 A 
ATOM     62  CE2 TYR A   8     -11.235 -15.950  10.762  0.00  0.00    +0.036 A 
ATOM     63  CZ  TYR A   8     -11.350 -14.679  10.229  0.00  0.00    +0.134 A 
ATOM     64  CE1 TYR A   8     -10.879 -14.407   8.956  0.00  0.00    +0.036 A 
ATOM     65  CD1 TYR A   8     -10.292 -15.426   8.213  0.00  0.00    -0.001 A 
BRANCH  63  66
ATOM     66  OH  TYR A   8     -11.935 -13.685  10.980  0.00  0.00    -0.506 OA
ATOM     67  HH  TYR A   8     -11.941 -12.842  10.461  0.00  0.00    +0.292 HD
ENDBRANCH  63  66
ENDBRANCH  59  60
ENDBRANCH  56  59
ENDBRANCH  53  56
ENDBRANCH  51  52
BRANCH  51  68
ATOM     68  CB  MET A   7     -13.075 -22.492   8.593  0.00  0.00    +0.041 C 
BRANCH  68  69
ATOM     69  CG  MET A   7     -12.098 -23.029   7.563  0.00  0.00    +0.060 C 
BRANCH  69  70
ATOM     70  SD  MET A   7     -12.435 -24.731   7.072  0.00  0.00    -0.139 S 
ATOM     71  CE  MET A   7     -14.011 -24.571   6.230  0.00  0.00    +0.069 C 
ENDBRANCH  69  70
ENDBRANCH  68  69
ENDBRANCH  51  68
ENDBRANCH  49  51
ENDBRANCH  46  47
BRANCH  46  72
ATOM     72  CB  LEU A   6     -15.662 -18.521  11.307  0.00  0.00    +0.029 C 
BRANCH  72  73
ATOM     73  CG  LEU A   6     -15.400 -17.005  11.312  0.00  0.00    +0.002 C 
ATOM     74  CD2 LEU A   6     -15.131 -16.406  12.692  0.00  0.00    +0.000 C 
ATOM     75  CD1 LEU A   6     -14.301 -16.649  10.343  0.00  0.00    +0.000 C 
ENDBRANCH  72  73
ENDBRANCH  46  72
ENDBRANCH  44  46
ENDBRANCH  41  42
BRANCH  41  76
ATOM     76  CB  SER A   5     -14.771 -20.690  16.474  0.00  0.00    +0.166 C 
BRANCH  76  77
ATOM     77  OG  SER A   5     -15.720 -21.715  16.240  0.00  0.00    -0.380 OA
ATOM     78  H   SER A   5     -15.437 -22.539  16.710  0.00  0.00    +0.211 HD
ENDBRANCH  76  77
ENDBRANCH  41  76
ENDBRANCH   3  41
TORSDOF 34
REMARK  Name = ../refined-set-2016/3drg/3drg_pocket.pdb
REMARK  413 active torsions:
REMARK  status: ('A' for Active; 'I' for Inactive)
REMARK    1  A    between atoms: _1  and  _3
REMARK    2  A    between atoms: _3  and  _4
REMARK    3  A    between atoms: _3  and  _6
REMARK    4  A    between atoms: _6  and  _7
REMARK    5  A    between atoms: _12  and  _13
REMARK    6  A    between atoms: _15  and  _17
REMARK    7  A    between atoms: _17  and  _18
REMARK    8  A    between atoms: _17  and  _20
REMARK    9  A    between atoms: _20  and  _21
REMARK   10  A    between atoms: _21  and  _22
REMARK   11  A    between atoms: _27  and  _29
REMARK   12  A    between atoms: _29  and  _30
REMARK   13  A    between atoms: _29  and  _32
REMARK   14  A    between atoms: _32  and  _33
REMARK   15  A    between atoms: _35  and  _37
REMARK   16  A    between atoms: _37  and  _38
REMARK   17  A    between atoms: _37  and  _40
REMARK   18  A    between atoms: _40  and  _41
REMARK   19  A    between atoms: _44  and  _46
REMARK   20  A    between atoms: _46  and  _47
REMARK   21  A    between atoms: _46  and  _49
REMARK   22  A    between atoms: _49  and  _50
REMARK   23  A    between atoms: _52  and  _54
REMARK   24  A    between atoms: _54  and  _55
REMARK   25  A    between atoms: _54  and  _57
REMARK   26  A    between atoms: _57  and  _58
REMARK   27  A    between atoms: _61  and  _63
REMARK   28  A    between atoms: _63  and  _64
REMARK   29  A    between atoms: _63  and  _66
REMARK   30  A    between atoms: _66  and  _67
REMARK   31  A    between atoms: _69  and  _71
REMARK   32  A    between atoms: _71  and  _72
REMARK   33  A    between atoms: _74  and  _76
REMARK   34  A    between atoms: _76  and  _77
REMARK   35  A    between atoms: _76  and  _79
REMARK   36  A    between atoms: _79  and  _80
REMARK   37  A    between atoms: _82  and  _84
REMARK   38  A    between atoms: _84  and  _85
REMARK   39  A    between atoms: _84  and  _87
REMARK   40  A    between atoms: _87  and  _88
REMARK   41  A    between atoms: _93  and  _95
REMARK   42  A    between atoms: _95  and  _96
REMARK   43  A    between atoms: _95  and  _98
REMARK   44  A    between atoms: _98  and  _99
REMARK   45  A    between atoms: _102  and  _104
REMARK   46  A    between atoms: _104  and  _105
REMARK   47  A    between atoms: _108  and  _110
REMARK   48  A    between atoms: _110  and  _111
REMARK   49  A    between atoms: _110  and  _113
REMARK   50  A    between atoms: _113  and  _114
REMARK   51  A    between atoms: _117  and  _119
REMARK   52  A    between atoms: _119  and  _120
REMARK   53  A    between atoms: _119  and  _122
REMARK   54  A    between atoms: _122  and  _123
REMARK   55  A    between atoms: _129  and  _131
REMARK   56  A    between atoms: _131  and  _132
REMARK   57  A    between atoms: _135  and  _137
REMARK   58  A    between atoms: _137  and  _138
REMARK   59  A    between atoms: _137  and  _140
REMARK   60  A    between atoms: _140  and  _141
REMARK   61  A    between atoms: _144  and  _146
REMARK   62  A    between atoms: _146  and  _147
REMARK   63  A    between atoms: _146  and  _149
REMARK   64  A    between atoms: _149  and  _150
REMARK   65  A    between atoms: _152  and  _154
REMARK   66  A    between atoms: _154  and  _155
REMARK   67  A    between atoms: _157  and  _159
REMARK   68  A    between atoms: _159  and  _160
REMARK   69  A    between atoms: _162  and  _164
REMARK   70  A    between atoms: _164  and  _165
REMARK   71  A    between atoms: _164  and  _167
REMARK   72  A    between atoms: _167  and  _168
REMARK   73  A    between atoms: _168  and  _169
REMARK   74  A    between atoms: _174  and  _176
REMARK   75  A    between atoms: _176  and  _177
REMARK   76  A    between atoms: _176  and  _179
REMARK   77  A    between atoms: _179  and  _180
REMARK   78  A    between atoms: _183  and  _185
REMARK   79  A    between atoms: _185  and  _186
REMARK   80  A    between atoms: _188  and  _190
REMARK   81  A    between atoms: _190  and  _191
REMARK   82  A    between atoms: _190  and  _193
REMARK   83  A    between atoms: _193  and  _194
REMARK   84  A    between atoms: _197  and  _199
REMARK   85  A    between atoms: _199  and  _200
REMARK   86  A    between atoms: _199  and  _202
REMARK   87  A    between atoms: _202  and  _203
REMARK   88  A    between atoms: _209  and  _211
REMARK   89  A    between atoms: _211  and  _212
REMARK   90  A    between atoms: _211  and  _214
REMARK   91  A    between atoms: _214  and  _215
REMARK   92  A    between atoms: _218  and  _220
REMARK   93  A    between atoms: _220  and  _221
REMARK   94  A    between atoms: _220  and  _223
REMARK   95  A    between atoms: _223  and  _224
REMARK   96  A    between atoms: _230  and  _232
REMARK   97  A    between atoms: _232  and  _233
REMARK   98  A    between atoms: _232  and  _235
REMARK   99  A    between atoms: _235  and  _236
REMARK  100  A    between atoms: _242  and  _244
REMARK  101  A    between atoms: _244  and  _245
REMARK  102  A    between atoms: _244  and  _247
REMARK  103  A    between atoms: _247  and  _248
REMARK  104  A    between atoms: _251  and  _253
REMARK  105  A    between atoms: _253  and  _254
REMARK  106  A    between atoms: _253  and  _256
REMARK  107  A    between atoms: _256  and  _257
REMARK  108  A    between atoms: _260  and  _262
REMARK  109  A    between atoms: _262  and  _263
REMARK  110  A    between atoms: _262  and  _265
REMARK  111  A    between atoms: _265  and  _266
REMARK  112  A    between atoms: _266  and  _267
REMARK  113  A    between atoms: _267  and  _268
REMARK  114  A    between atoms: _277  and  _279
REMARK  115  A    between atoms: _279  and  _280
REMARK  116  A    between atoms: _279  and  _282
REMARK  117  A    between atoms: _282  and  _283
REMARK  118  A    between atoms: _286  and  _288
REMARK  119  A    between atoms: _288  and  _289
REMARK  120  A    between atoms: _288  and  _291
REMARK  121  A    between atoms: _291  and  _292
REMARK  122  A    between atoms: _292  and  _293
REMARK  123  A    between atoms: _298  and  _300
REMARK  124  A    between atoms: _300  and  _301
REMARK  125  A    between atoms: _300  and  _303
REMARK  126  A    between atoms: _303  and  _304
REMARK  127  A    between atoms: _306  and  _308
REMARK  128  A    between atoms: _308  and  _309
REMARK  129  A    between atoms: _311  and  _313
REMARK  130  A    between atoms: _313  and  _314
REMARK  131  A    between atoms: _313  and  _316
REMARK  132  A    between atoms: _316  and  _317
REMARK  133  A    between atoms: _322  and  _324
REMARK  134  A    between atoms: _324  and  _325
REMARK  135  A    between atoms: _327  and  _329
REMARK  136  A    between atoms: _329  and  _330
REMARK  137  A    between atoms: _329  and  _332
REMARK  138  A    between atoms: _332  and  _333
REMARK  139  A    between atoms: _339  and  _341
REMARK  140  A    between atoms: _341  and  _342
REMARK  141  A    between atoms: _341  and  _344
REMARK  142  A    between atoms: _344  and  _345
REMARK  143  A    between atoms: _348  and  _350
REMARK  144  A    between atoms: _350  and  _351
REMARK  145  A    between atoms: _350  and  _353
REMARK  146  A    between atoms: _353  and  _354
REMARK  147  A    between atoms: _354  and  _355
REMARK  148  A    between atoms: _358  and  _360
REMARK  149  A    between atoms: _360  and  _361
REMARK  150  A    between atoms: _360  and  _363
REMARK  151  A    between atoms: _363  and  _364
REMARK  152  A    between atoms: _367  and  _369
REMARK  153  A    between atoms: _369  and  _370
REMARK  154  A    between atoms: _369  and  _372
REMARK  155  A    between atoms: _375  and  _377
REMARK  156  A    between atoms: _377  and  _378
REMARK  157  A    between atoms: _377  and  _380
REMARK  158  A    between atoms: _380  and  _381
REMARK  159  A    between atoms: _384  and  _386
REMARK  160  A    between atoms: _386  and  _387
REMARK  161  A    between atoms: _386  and  _389
REMARK  162  A    between atoms: _389  and  _390
REMARK  163  A    between atoms: _395  and  _397
REMARK  164  A    between atoms: _397  and  _398
REMARK  165  A    between atoms: _400  and  _402
REMARK  166  A    between atoms: _402  and  _403
REMARK  167  A    between atoms: _402  and  _405
REMARK  168  A    between atoms: _405  and  _406
REMARK  169  A    between atoms: _406  and  _407
REMARK  170  A    between atoms: _409  and  _411
REMARK  171  A    between atoms: _411  and  _412
REMARK  172  A    between atoms: _411  and  _414
REMARK  173  A    between atoms: _417  and  _419
REMARK  174  A    between atoms: _419  and  _420
REMARK  175  A    between atoms: _419  and  _422
REMARK  176  A    between atoms: _422  and  _423
REMARK  177  A    between atoms: _425  and  _427
REMARK  178  A    between atoms: _427  and  _428
REMARK  179  A    between atoms: _427  and  _430
REMARK  180  A    between atoms: _430  and  _431
REMARK  181  A    between atoms: _433  and  _435
REMARK  182  A    between atoms: _435  and  _436
REMARK  183  A    between atoms: _435  and  _438
REMARK  184  A    between atoms: _438  and  _439
REMARK  185  A    between atoms: _439  and  _440
REMARK  186  A    between atoms: _445  and  _447
REMARK  187  A    between atoms: _447  and  _448
REMARK  188  A    between atoms: _451  and  _453
REMARK  189  A    between atoms: _453  and  _454
REMARK  190  A    between atoms: _453  and  _456
REMARK  191  A    between atoms: _456  and  _457
REMARK  192  A    between atoms: _457  and  _458
REMARK  193  A    between atoms: _460  and  _462
REMARK  194  A    between atoms: _462  and  _463
REMARK  195  A    between atoms: _462  and  _465
REMARK  196  A    between atoms: _465  and  _466
REMARK  197  A    between atoms: _471  and  _472
REMARK  198  A    between atoms: _474  and  _476
REMARK  199  A    between atoms: _476  and  _477
REMARK  200  A    between atoms: _476  and  _479
REMARK  201  A    between atoms: _479  and  _480
REMARK  202  A    between atoms: _483  and  _485
REMARK  203  A    between atoms: _485  and  _486
REMARK  204  A    between atoms: _485  and  _488
REMARK  205  A    between atoms: _488  and  _489
REMARK  206  A    between atoms: _491  and  _493
REMARK  207  A    between atoms: _493  and  _494
REMARK  208  A    between atoms: _493  and  _496
REMARK  209  A    between atoms: _496  and  _497
REMARK  210  A    between atoms: _500  and  _502
REMARK  211  A    between atoms: _502  and  _503
REMARK  212  A    between atoms: _502  and  _505
REMARK  213  A    between atoms: _505  and  _506
REMARK  214  A    between atoms: _506  and  _507
REMARK  215  A    between atoms: _509  and  _511
REMARK  216  A    between atoms: _511  and  _512
REMARK  217  A    between atoms: _511  and  _514
REMARK  218  A    between atoms: _514  and  _515
REMARK  219  A    between atoms: _520  and  _521
REMARK  220  A    between atoms: _523  and  _525
REMARK  221  A    between atoms: _525  and  _526
REMARK  222  A    between atoms: _525  and  _528
REMARK  223  A    between atoms: _528  and  _529
REMARK  224  A    between atoms: _529  and  _530
REMARK  225  A    between atoms: _530  and  _531
REMARK  226  A    between atoms: _540  and  _542
REMARK  227  A    between atoms: _542  and  _543
REMARK  228  A    between atoms: _542  and  _545
REMARK  229  A    between atoms: _545  and  _546
REMARK  230  A    between atoms: _548  and  _550
REMARK  231  A    between atoms: _550  and  _551
REMARK  232  A    between atoms: _550  and  _553
REMARK  233  A    between atoms: _553  and  _554
REMARK  234  A    between atoms: _559  and  _560
REMARK  235  A    between atoms: _562  and  _564
REMARK  236  A    between atoms: _564  and  _565
REMARK  237  A    between atoms: _568  and  _570
REMARK  238  A    between atoms: _570  and  _571
REMARK  239  A    between atoms: _574  and  _576
REMARK  240  A    between atoms: _576  and  _577
REMARK  241  A    between atoms: _576  and  _579
REMARK  242  A    between atoms: _579  and  _580
REMARK  243  A    between atoms: _580  and  _581
REMARK  244  A    between atoms: _581  and  _582
REMARK  245  A    between atoms: _591  and  _593
REMARK  246  A    between atoms: _593  and  _594
REMARK  247  A    between atoms: _593  and  _596
REMARK  248  A    between atoms: _599  and  _601
REMARK  249  A    between atoms: _601  and  _602
REMARK  250  A    between atoms: _604  and  _606
REMARK  251  A    between atoms: _606  and  _607
REMARK  252  A    between atoms: _606  and  _609
REMARK  253  A    between atoms: _609  and  _610
REMARK  254  A    between atoms: _613  and  _615
REMARK  255  A    between atoms: _615  and  _616
REMARK  256  A    between atoms: _619  and  _621
REMARK  257  A    between atoms: _621  and  _622
REMARK  258  A    between atoms: _621  and  _624
REMARK  259  A    between atoms: _624  and  _625
REMARK  260  A    between atoms: _628  and  _630
REMARK  261  A    between atoms: _630  and  _631
REMARK  262  A    between atoms: _630  and  _633
REMARK  263  A    between atoms: _633  and  _634
REMARK  264  A    between atoms: _639  and  _640
REMARK  265  A    between atoms: _642  and  _644
REMARK  266  A    between atoms: _644  and  _645
REMARK  267  A    between atoms: _644  and  _647
REMARK  268  A    between atoms: _647  and  _648
REMARK  269  A    between atoms: _648  and  _649
REMARK  270  A    between atoms: _651  and  _653
REMARK  271  A    between atoms: _653  and  _654
REMARK  272  A    between atoms: _653  and  _656
REMARK  273  A    between atoms: _656  and  _657
REMARK  274  A    between atoms: _657  and  _658
REMARK  275  A    between atoms: _661  and  _663
REMARK  276  A    between atoms: _663  and  _664
REMARK  277  A    between atoms: _663  and  _666
REMARK  278  A    between atoms: _666  and  _667
REMARK  279  A    between atoms: _673  and  _675
REMARK  280  A    between atoms: _675  and  _676
REMARK  281  A    between atoms: _675  and  _678
REMARK  282  A    between atoms: _678  and  _679
REMARK  283  A    between atoms: _684  and  _686
REMARK  284  A    between atoms: _686  and  _687
REMARK  285  A    between atoms: _686  and  _689
REMARK  286  A    between atoms: _689  and  _690
REMARK  287  A    between atoms: _700  and  _702
REMARK  288  A    between atoms: _702  and  _703
REMARK  289  A    between atoms: _702  and  _705
REMARK  290  A    between atoms: _708  and  _710
REMARK  291  A    between atoms: _710  and  _711
REMARK  292  A    between atoms: _710  and  _713
REMARK  293  A    between atoms: _713  and  _714
REMARK  294  A    between atoms: _717  and  _719
REMARK  295  A    between atoms: _719  and  _720
REMARK  296  A    between atoms: _719  and  _722
REMARK  297  A    between atoms: _722  and  _723
REMARK  298  A    between atoms: _723  and  _724
REMARK  299  A    between atoms: _726  and  _728
REMARK  300  A    between atoms: _728  and  _729
REMARK  301  A    between atoms: _728  and  _731
REMARK  302  A    between atoms: _731  and  _732
REMARK  303  A    between atoms: _735  and  _737
REMARK  304  A    between atoms: _737  and  _738
REMARK  305  A    between atoms: _737  and  _740
REMARK  306  A    between atoms: _740  and  _741
REMARK  307  A    between atoms: _744  and  _746
REMARK  308  A    between atoms: _746  and  _747
REMARK  309  A    between atoms: _746  and  _749
REMARK  310  A    between atoms: _749  and  _750
REMARK  311  A    between atoms: _753  and  _755
REMARK  312  A    between atoms: _755  and  _756
REMARK  313  A    between atoms: _755  and  _758
REMARK  314  A    between atoms: _758  and  _759
REMARK  315  A    between atoms: _762  and  _764
REMARK  316  A    between atoms: _764  and  _765
REMARK  317  A    between atoms: _767  and  _769
REMARK  318  A    between atoms: _769  and  _770
REMARK  319  A    between atoms: _769  and  _772
REMARK  320  A    between atoms: _772  and  _773
REMARK  321  A    between atoms: _775  and  _777
REMARK  322  A    between atoms: _777  and  _778
REMARK  323  A    between atoms: _777  and  _780
REMARK  324  A    between atoms: _780  and  _781
REMARK  325  A    between atoms: _791  and  _793
REMARK  326  A    between atoms: _793  and  _794
REMARK  327  A    between atoms: _793  and  _796
REMARK  328  A    between atoms: _796  and  _797
REMARK  329  A    between atoms: _799  and  _801
REMARK  330  A    between atoms: _801  and  _802
REMARK  331  A    between atoms: _801  and  _804
REMARK  332  A    between atoms: _804  and  _805
REMARK  333  A    between atoms: _808  and  _810
REMARK  334  A    between atoms: _810  and  _811
REMARK  335  A    between atoms: _814  and  _816
REMARK  336  A    between atoms: _816  and  _817
REMARK  337  A    between atoms: _816  and  _819
REMARK  338  A    between atoms: _819  and  _820
REMARK  339  A    between atoms: _822  and  _824
REMARK  340  A    between atoms: _824  and  _825
REMARK  341  A    between atoms: _824  and  _827
REMARK  342  A    between atoms: _827  and  _828
REMARK  343  A    between atoms: _828  and  _829
REMARK  344  A    between atoms: _832  and  _834
REMARK  345  A    between atoms: _834  and  _835
REMARK  346  A    between atoms: _834  and  _837
REMARK  347  A    between atoms: _837  and  _838
REMARK  348  A    between atoms: _840  and  _842
REMARK  349  A    between atoms: _842  and  _843
REMARK  350  A    between atoms: _842  and  _845
REMARK  351  A    between atoms: _845  and  _846
REMARK  352  A    between atoms: _846  and  _847
REMARK  353  A    between atoms: _852  and  _854
REMARK  354  A    between atoms: _854  and  _855
REMARK  355  A    between atoms: _854  and  _857
REMARK  356  A    between atoms: _857  and  _858
REMARK  357  A    between atoms: _858  and  _859
REMARK  358  A    between atoms: _864  and  _866
REMARK  359  A    between atoms: _866  and  _867
REMARK  360  A    between atoms: _866  and  _869
REMARK  361  A    between atoms: _869  and  _870
REMARK  362  A    between atoms: _873  and  _875
REMARK  363  A    between atoms: _875  and  _876
REMARK  364  A    between atoms: _875  and  _878
REMARK  365  A    between atoms: _878  and  _879
REMARK  366  A    between atoms: _882  and  _884
REMARK  367  A    between atoms: _884  and  _885
REMARK  368  A    between atoms: _884  and  _887
REMARK  369  A    between atoms: _887  and  _888
REMARK  370  A    between atoms: _895  and  _896
REMARK  371  A    between atoms: _901  and  _903
REMARK  372  A    between atoms: _903  and  _904
REMARK  373  A    between atoms: _903  and  _906
REMARK  374  A    between atoms: _906  and  _907
REMARK  375  A    between atoms: _912  and  _913
REMARK  376  A    between atoms: _915  and  _917
REMARK  377  A    between atoms: _917  and  _918
REMARK  378  A    between atoms: _917  and  _920
REMARK  379  A    between atoms: _920  and  _921
REMARK  380  A    between atoms: _926  and  _928
REMARK  381  A    between atoms: _928  and  _929
REMARK  382  A    between atoms: _928  and  _931
REMARK  383  A    between atoms: _931  and  _932
REMARK  384  A    between atoms: _938  and  _940
REMARK  385  A    between atoms: _940  and  _941
REMARK  386  A    between atoms: _940  and  _943
REMARK  387  A    between atoms: _943  and  _944
REMARK  388  A    between atoms: _947  and  _949
REMARK  389  A    between atoms: _949  and  _950
REMARK  390  A    between atoms: _949  and  _952
REMARK  391  A    between atoms: _952  and  _953
REMARK  392  A    between atoms: _958  and  _960
REMARK  393  A    between atoms: _960  and  _961
REMARK  394  A    between atoms: _960  and  _963
REMARK  395  A    between atoms: _963  and  _964
REMARK  396  A    between atoms: _970  and  _972
REMARK  397  A    between atoms: _972  and  _973
REMARK  398  A    between atoms: _972  and  _975
REMARK  399  A    between atoms: _975  and  _976
REMARK  400  A    between atoms: _976  and  _977
REMARK  401  A    between atoms: _979  and  _981
REMARK  402  A    between atoms: _981  and  _982
REMARK  403  A    between atoms: _981  and  _984
REMARK  404  A    between atoms: _984  and  _985
REMARK  405  A    between atoms: _988  and  _990
REMARK  406  A    between atoms: _990  and  _991
REMARK  407  A    between atoms: _990  and  _993
REMARK  408  A    between atoms: _993  and  _994
REMARK  409  A    between atoms: _999  and  _1001
REMARK  410  A    between atoms: _1001  and  _1002
REMARK  411  A    between atoms: _1001  and  _1004
REMARK  412  A    between atoms: _1004  and  _1005
REMARK  413  A    between atoms: _1010  and  _1011
REMARK                            x       y       z     vdW  Elec       q    Type
REMARK                         _______ _______ _______ _____ _____    ______ ____
ROOT
ATOM      1  NE  ARG A   1     -15.559 -26.259   8.851  0.00  0.00    -0.265 N 
ATOM      2  CZ  ARG A   1     -15.461 -25.277   9.745  0.00  0.00    +0.342 C 
ATOM      3  NH2 ARG A   1     -14.515 -25.298  10.676  0.00  0.00    -0.292 N 
ATOM      4 HH21 ARG A   1     -14.449 -24.525  11.368  0.00  0.00    +0.255 HD
ATOM      5 HH22 ARG A   1     -13.839 -26.088  10.713  0.00  0.00    +0.255 HD
ATOM      6  NH1 ARG A   1     -16.316 -24.266   9.711  0.00  0.00    -0.292 N 
ATOM      7 HH11 ARG A   1     -16.241 -23.498  10.408  0.00  0.00    +0.255 HD
ATOM      8 HH12 ARG A   1     -17.062 -24.240   8.987  0.00  0.00    +0.255 HD
ATOM      9  HE  ARG A   1     -16.319 -26.193   8.144  0.00  0.00    +0.259 HD
ENDROOT
BRANCH   1  10
ATOM     10  CD  ARG A   1     -14.676 -27.425   8.790  0.00  0.00    +0.174 C 
BRANCH  10  11
ATOM     11  CG  ARG A   1     -15.147 -28.477   7.780  0.00  0.00    +0.045 C 
BRANCH  11  12
ATOM     12  CB  ARG A   1     -16.507 -29.060   8.158  0.00  0.00    +0.029 C 
BRANCH  12  13
ATOM     13  CA  ARG A   1     -16.773 -30.473   7.622  0.00  0.00    +0.133 C 
BRANCH  13  14
ATOM     14  N   ARG A   1     -17.007 -30.455   6.175  0.00  0.00    -0.239 NA
ATOM     15  H   ARG A   1     -17.067 -29.538   5.688  0.00  0.00    +0.142 HD
ENDBRANCH  13  14
BRANCH  13  16
ATOM     16  C   ARG A   1     -17.929 -31.111   8.391  0.00  0.00    +0.224 C 
ATOM     17  O   ARG A   1     -19.085 -31.032   7.973  0.00  0.00    -0.287 OA
ENDBRANCH  13  16
ENDBRANCH  12  13
ENDBRANCH  11  12
ENDBRANCH  10  11
ENDBRANCH   1  10
TORSDOF 6
REMARK  Name = ../refined-set-2016/3drg/3drg_pocket.pdb
REMARK  413 active torsions:
REMARK  status: ('A' for Active; 'I' for Inactive)
REMARK    1  A    between atoms: _1  and  _3
REMARK    2  A    between atoms: _3  and  _4
REMARK    3  A    between atoms: _3  and  _6
REMARK    4  A    between atoms: _6  and  _7
REMARK    5  A    between atoms: _12  and  _13
REMARK    6  A    between atoms: _15  and  _17
REMARK    7  A    between atoms: _17  and  _18
REMARK    8  A    between atoms: _17  and  _20
REMARK    9  A    between atoms: _20  and  _21
REMARK   10  A    between atoms: _21  and  _22
REMARK   11  A    between atoms: _27  and  _29
REMARK   12  A    between atoms: _29  and  _30
REMARK   13  A    between atoms: _29  and  _32
REMARK   14  A    between atoms: _32  and  _33
REMARK   15  A    between atoms: _35  and  _37
REMARK   16  A    between atoms: _37  and  _38
REMARK   17  A    between atoms: _37  and  _40
REMARK   18  A    between atoms: _40  and  _41
REMARK   19  A    between atoms: _44  and  _46
REMARK   20  A    between atoms: _46  and  _47
REMARK   21  A    between atoms: _46  and  _49
REMARK   22  A    between atoms: _49  and  _50
REMARK   23  A    between atoms: _52  and  _54
REMARK   24  A    between atoms: _54  and  _55
REMARK   25  A    between atoms: _54  and  _57
REMARK   26  A    between atoms: _57  and  _58
REMARK   27  A    between atoms: _61  and  _63
REMARK   28  A    between atoms: _63  and  _64
REMARK   29  A    between atoms: _63  and  _66
REMARK   30  A    between atoms: _66  and  _67
REMARK   31  A    between atoms: _69  and  _71
REMARK   32  A    between atoms: _71  and  _72
REMARK   33  A    between atoms: _74  and  _76
REMARK   34  A    between atoms: _76  and  _77
REMARK   35  A    between atoms: _76  and  _79
REMARK   36  A    between atoms: _79  and  _80
REMARK   37  A    between atoms: _82  and  _84
REMARK   38  A    between atoms: _84  and  _85
REMARK   39  A    between atoms: _84  and  _87
REMARK   40  A    between atoms: _87  and  _88
REMARK   41  A    between atoms: _93  and  _95
REMARK   42  A    between atoms: _95  and  _96
REMARK   43  A    between atoms: _95  and  _98
REMARK   44  A    between atoms: _98  and  _99
REMARK   45  A    between atoms: _102  and  _104
REMARK   46  A    between atoms: _104  and  _105
REMARK   47  A    between atoms: _108  and  _110
REMARK   48  A    between atoms: _110  and  _111
REMARK   49  A    between atoms: _110  and  _113
REMARK   50  A    between atoms: _113  and  _114
REMARK   51  A    between atoms: _117  and  _119
REMARK   52  A    between atoms: _119  and  _120
REMARK   53  A    between atoms: _119  and  _122
REMARK   54  A    between atoms: _122  and  _123
REMARK   55  A    between atoms: _129  and  _131
REMARK   56  A    between atoms: _131  and  _132
REMARK   57  A    between atoms: _135  and  _137
REMARK   58  A    between atoms: _137  and  _138
REMARK   59  A    between atoms: _137  and  _140
REMARK   60  A    between atoms: _140  and  _141
REMARK   61  A    between atoms: _144  and  _146
REMARK   62  A    between atoms: _146  and  _147
REMARK   63  A    between atoms: _146  and  _149
REMARK   64  A    between atoms: _149  and  _150
REMARK   65  A    between atoms: _152  and  _154
REMARK   66  A    between atoms: _154  and  _155
REMARK   67  A    between atoms: _157  and  _159
REMARK   68  A    between atoms: _159  and  _160
REMARK   69  A    between atoms: _162  and  _164
REMARK   70  A    between atoms: _164  and  _165
REMARK   71  A    between atoms: _164  and  _167
REMARK   72  A    between atoms: _167  and  _168
REMARK   73  A    between atoms: _168  and  _169
REMARK   74  A    between atoms: _174  and  _176
REMARK   75  A    between atoms: _176  and  _177
REMARK   76  A    between atoms: _176  and  _179
REMARK   77  A    between atoms: _179  and  _180
REMARK   78  A    between atoms: _183  and  _185
REMARK   79  A    between atoms: _185  and  _186
REMARK   80  A    between atoms: _188  and  _190
REMARK   81  A    between atoms: _190  and  _191
REMARK   82  A    between atoms: _190  and  _193
REMARK   83  A    between atoms: _193  and  _194
REMARK   84  A    between atoms: _197  and  _199
REMARK   85  A    between atoms: _199  and  _200
REMARK   86  A    between atoms: _199  and  _202
REMARK   87  A    between atoms: _202  and  _203
REMARK   88  A    between atoms: _209  and  _211
REMARK   89  A    between atoms: _211  and  _212
REMARK   90  A    between atoms: _211  and  _214
REMARK   91  A    between atoms: _214  and  _215
REMARK   92  A    between atoms: _218  and  _220
REMARK   93  A    between atoms: _220  and  _221
REMARK   94  A    between atoms: _220  and  _223
REMARK   95  A    between atoms: _223  and  _224
REMARK   96  A    between atoms: _230  and  _232
REMARK   97  A    between atoms: _232  and  _233
REMARK   98  A    between atoms: _232  and  _235
REMARK   99  A    between atoms: _235  and  _236
REMARK  100  A    between atoms: _242  and  _244
REMARK  101  A    between atoms: _244  and  _245
REMARK  102  A    between atoms: _244  and  _247
REMARK  103  A    between atoms: _247  and  _248
REMARK  104  A    between atoms: _251  and  _253
REMARK  105  A    between atoms: _253  and  _254
REMARK  106  A    between atoms: _253  and  _256
REMARK  107  A    between atoms: _256  and  _257
REMARK  108  A    between atoms: _260  and  _262
REMARK  109  A    between atoms: _262  and  _263
REMARK  110  A    between atoms: _262  and  _265
REMARK  111  A    between atoms: _265  and  _266
REMARK  112  A    between atoms: _266  and  _267
REMARK  113  A    between atoms: _267  and  _268
REMARK  114  A    between atoms: _277  and  _279
REMARK  115  A    between atoms: _279  and  _280
REMARK  116  A    between atoms: _279  and  _282
REMARK  117  A    between atoms: _282  and  _283
REMARK  118  A    between atoms: _286  and  _288
REMARK  119  A    between atoms: _288  and  _289
REMARK  120  A    between atoms: _288  and  _291
REMARK  121  A    between atoms: _291  and  _292
REMARK  122  A    between atoms: _292  and  _293
REMARK  123  A    between atoms: _298  and  _300
REMARK  124  A    between atoms: _300  and  _301
REMARK  125  A    between atoms: _300  and  _303
REMARK  126  A    between atoms: _303  and  _304
REMARK  127  A    between atoms: _306  and  _308
REMARK  128  A    between atoms: _308  and  _309
REMARK  129  A    between atoms: _311  and  _313
REMARK  130  A    between atoms: _313  and  _314
REMARK  131  A    between atoms: _313  and  _316
REMARK  132  A    between atoms: _316  and  _317
REMARK  133  A    between atoms: _322  and  _324
REMARK  134  A    between atoms: _324  and  _325
REMARK  135  A    between atoms: _327  and  _329
REMARK  136  A    between atoms: _329  and  _330
REMARK  137  A    between atoms: _329  and  _332
REMARK  138  A    between atoms: _332  and  _333
REMARK  139  A    between atoms: _339  and  _341
REMARK  140  A    between atoms: _341  and  _342
REMARK  141  A    between atoms: _341  and  _344
REMARK  142  A    between atoms: _344  and  _345
REMARK  143  A    between atoms: _348  and  _350
REMARK  144  A    between atoms: _350  and  _351
REMARK  145  A    between atoms: _350  and  _353
REMARK  146  A    between atoms: _353  and  _354
REMARK  147  A    between atoms: _354  and  _355
REMARK  148  A    between atoms: _358  and  _360
REMARK  149  A    between atoms: _360  and  _361
REMARK  150  A    between atoms: _360  and  _363
REMARK  151  A    between atoms: _363  and  _364
REMARK  152  A    between atoms: _367  and  _369
REMARK  153  A    between atoms: _369  and  _370
REMARK  154  A    between atoms: _369  and  _372
REMARK  155  A    between atoms: _375  and  _377
REMARK  156  A    between atoms: _377  and  _378
REMARK  157  A    between atoms: _377  and  _380
REMARK  158  A    between atoms: _380  and  _381
REMARK  159  A    between atoms: _384  and  _386
REMARK  160  A    between atoms: _386  and  _387
REMARK  161  A    between atoms: _386  and  _389
REMARK  162  A    between atoms: _389  and  _390
REMARK  163  A    between atoms: _395  and  _397
REMARK  164  A    between atoms: _397  and  _398
REMARK  165  A    between atoms: _400  and  _402
REMARK  166  A    between atoms: _402  and  _403
REMARK  167  A    between atoms: _402  and  _405
REMARK  168  A    between atoms: _405  and  _406
REMARK  169  A    between atoms: _406  and  _407
REMARK  170  A    between atoms: _409  and  _411
REMARK  171  A    between atoms: _411  and  _412
REMARK  172  A    between atoms: _411  and  _414
REMARK  173  A    between atoms: _417  and  _419
REMARK  174  A    between atoms: _419  and  _420
REMARK  175  A    between atoms: _419  and  _422
REMARK  176  A    between atoms: _422  and  _423
REMARK  177  A    between atoms: _425  and  _427
REMARK  178  A    between atoms: _427  and  _428
REMARK  179  A    between atoms: _427  and  _430
REMARK  180  A    between atoms: _430  and  _431
REMARK  181  A    between atoms: _433  and  _435
REMARK  182  A    between atoms: _435  and  _436
REMARK  183  A    between atoms: _435  and  _438
REMARK  184  A    between atoms: _438  and  _439
REMARK  185  A    between atoms: _439  and  _440
REMARK  186  A    between atoms: _445  and  _447
REMARK  187  A    between atoms: _447  and  _448
REMARK  188  A    between atoms: _451  and  _453
REMARK  189  A    between atoms: _453  and  _454
REMARK  190  A    between atoms: _453  and  _456
REMARK  191  A    between atoms: _456  and  _457
REMARK  192  A    between atoms: _457  and  _458
REMARK  193  A    between atoms: _460  and  _462
REMARK  194  A    between atoms: _462  and  _463
REMARK  195  A    between atoms: _462  and  _465
REMARK  196  A    between atoms: _465  and  _466
REMARK  197  A    between atoms: _471  and  _472
REMARK  198  A    between atoms: _474  and  _476
REMARK  199  A    between atoms: _476  and  _477
REMARK  200  A    between atoms: _476  and  _479
REMARK  201  A    between atoms: _479  and  _480
REMARK  202  A    between atoms: _483  and  _485
REMARK  203  A    between atoms: _485  and  _486
REMARK  204  A    between atoms: _485  and  _488
REMARK  205  A    between atoms: _488  and  _489
REMARK  206  A    between atoms: _491  and  _493
REMARK  207  A    between atoms: _493  and  _494
REMARK  208  A    between atoms: _493  and  _496
REMARK  209  A    between atoms: _496  and  _497
REMARK  210  A    between atoms: _500  and  _502
REMARK  211  A    between atoms: _502  and  _503
REMARK  212  A    between atoms: _502  and  _505
REMARK  213  A    between atoms: _505  and  _506
REMARK  214  A    between atoms: _506  and  _507
REMARK  215  A    between atoms: _509  and  _511
REMARK  216  A    between atoms: _511  and  _512
REMARK  217  A    between atoms: _511  and  _514
REMARK  218  A    between atoms: _514  and  _515
REMARK  219  A    between atoms: _520  and  _521
REMARK  220  A    between atoms: _523  and  _525
REMARK  221  A    between atoms: _525  and  _526
REMARK  222  A    between atoms: _525  and  _528
REMARK  223  A    between atoms: _528  and  _529
REMARK  224  A    between atoms: _529  and  _530
REMARK  225  A    between atoms: _530  and  _531
REMARK  226  A    between atoms: _540  and  _542
REMARK  227  A    between atoms: _542  and  _543
REMARK  228  A    between atoms: _542  and  _545
REMARK  229  A    between atoms: _545  and  _546
REMARK  230  A    between atoms: _548  and  _550
REMARK  231  A    between atoms: _550  and  _551
REMARK  232  A    between atoms: _550  and  _553
REMARK  233  A    between atoms: _553  and  _554
REMARK  234  A    between atoms: _559  and  _560
REMARK  235  A    between atoms: _562  and  _564
REMARK  236  A    between atoms: _564  and  _565
REMARK  237  A    between atoms: _568  and  _570
REMARK  238  A    between atoms: _570  and  _571
REMARK  239  A    between atoms: _574  and  _576
REMARK  240  A    between atoms: _576  and  _577
REMARK  241  A    between atoms: _576  and  _579
REMARK  242  A    between atoms: _579  and  _580
REMARK  243  A    between atoms: _580  and  _581
REMARK  244  A    between atoms: _581  and  _582
REMARK  245  A    between atoms: _591  and  _593
REMARK  246  A    between atoms: _593  and  _594
REMARK  247  A    between atoms: _593  and  _596
REMARK  248  A    between atoms: _599  and  _601
REMARK  249  A    between atoms: _601  and  _602
REMARK  250  A    between atoms: _604  and  _606
REMARK  251  A    between atoms: _606  and  _607
REMARK  252  A    between atoms: _606  and  _609
REMARK  253  A    between atoms: _609  and  _610
REMARK  254  A    between atoms: _613  and  _615
REMARK  255  A    between atoms: _615  and  _616
REMARK  256  A    between atoms: _619  and  _621
REMARK  257  A    between atoms: _621  and  _622
REMARK  258  A    between atoms: _621  and  _624
REMARK  259  A    between atoms: _624  and  _625
REMARK  260  A    between atoms: _628  and  _630
REMARK  261  A    between atoms: _630  and  _631
REMARK  262  A    between atoms: _630  and  _633
REMARK  263  A    between atoms: _633  and  _634
REMARK  264  A    between atoms: _639  and  _640
REMARK  265  A    between atoms: _642  and  _644
REMARK  266  A    between atoms: _644  and  _645
REMARK  267  A    between atoms: _644  and  _647
REMARK  268  A    between atoms: _647  and  _648
REMARK  269  A    between atoms: _648  and  _649
REMARK  270  A    between atoms: _651  and  _653
REMARK  271  A    between atoms: _653  and  _654
REMARK  272  A    between atoms: _653  and  _656
REMARK  273  A    between atoms: _656  and  _657
REMARK  274  A    between atoms: _657  and  _658
REMARK  275  A    between atoms: _661  and  _663
REMARK  276  A    between atoms: _663  and  _664
REMARK  277  A    between atoms: _663  and  _666
REMARK  278  A    between atoms: _666  and  _667
REMARK  279  A    between atoms: _673  and  _675
REMARK  280  A    between atoms: _675  and  _676
REMARK  281  A    between atoms: _675  and  _678
REMARK  282  A    between atoms: _678  and  _679
REMARK  283  A    between atoms: _684  and  _686
REMARK  284  A    between atoms: _686  and  _687
REMARK  285  A    between atoms: _686  and  _689
REMARK  286  A    between atoms: _689  and  _690
REMARK  287  A    between atoms: _700  and  _702
REMARK  288  A    between atoms: _702  and  _703
REMARK  289  A    between atoms: _702  and  _705
REMARK  290  A    between atoms: _708  and  _710
REMARK  291  A    between atoms: _710  and  _711
REMARK  292  A    between atoms: _710  and  _713
REMARK  293  A    between atoms: _713  and  _714
REMARK  294  A    between atoms: _717  and  _719
REMARK  295  A    between atoms: _719  and  _720
REMARK  296  A    between atoms: _719  and  _722
REMARK  297  A    between atoms: _722  and  _723
REMARK  298  A    between atoms: _723  and  _724
REMARK  299  A    between atoms: _726  and  _728
REMARK  300  A    between atoms: _728  and  _729
REMARK  301  A    between atoms: _728  and  _731
REMARK  302  A    between atoms: _731  and  _732
REMARK  303  A    between atoms: _735  and  _737
REMARK  304  A    between atoms: _737  and  _738
REMARK  305  A    between atoms: _737  and  _740
REMARK  306  A    between atoms: _740  and  _741
REMARK  307  A    between atoms: _744  and  _746
REMARK  308  A    between atoms: _746  and  _747
REMARK  309  A    between atoms: _746  and  _749
REMARK  310  A    between atoms: _749  and  _750
REMARK  311  A    between atoms: _753  and  _755
REMARK  312  A    between atoms: _755  and  _756
REMARK  313  A    between atoms: _755  and  _758
REMARK  314  A    between atoms: _758  and  _759
REMARK  315  A    between atoms: _762  and  _764
REMARK  316  A    between atoms: _764  and  _765
REMARK  317  A    between atoms: _767  and  _769
REMARK  318  A    between atoms: _769  and  _770
REMARK  319  A    between atoms: _769  and  _772
REMARK  320  A    between atoms: _772  and  _773
REMARK  321  A    between atoms: _775  and  _777
REMARK  322  A    between atoms: _777  and  _778
REMARK  323  A    between atoms: _777  and  _780
REMARK  324  A    between atoms: _780  and  _781
REMARK  325  A    between atoms: _791  and  _793
REMARK  326  A    between atoms: _793  and  _794
REMARK  327  A    between atoms: _793  and  _796
REMARK  328  A    between atoms: _796  and  _797
REMARK  329  A    between atoms: _799  and  _801
REMARK  330  A    between atoms: _801  and  _802
REMARK  331  A    between atoms: _801  and  _804
REMARK  332  A    between atoms: _804  and  _805
REMARK  333  A    between atoms: _808  and  _810
REMARK  334  A    between atoms: _810  and  _811
REMARK  335  A    between atoms: _814  and  _816
REMARK  336  A    between atoms: _816  and  _817
REMARK  337  A    between atoms: _816  and  _819
REMARK  338  A    between atoms: _819  and  _820
REMARK  339  A    between atoms: _822  and  _824
REMARK  340  A    between atoms: _824  and  _825
REMARK  341  A    between atoms: _824  and  _827
REMARK  342  A    between atoms: _827  and  _828
REMARK  343  A    between atoms: _828  and  _829
REMARK  344  A    between atoms: _832  and  _834
REMARK  345  A    between atoms: _834  and  _835
REMARK  346  A    between atoms: _834  and  _837
REMARK  347  A    between atoms: _837  and  _838
REMARK  348  A    between atoms: _840  and  _842
REMARK  349  A    between atoms: _842  and  _843
REMARK  350  A    between atoms: _842  and  _845
REMARK  351  A    between atoms: _845  and  _846
REMARK  352  A    between atoms: _846  and  _847
REMARK  353  A    between atoms: _852  and  _854
REMARK  354  A    between atoms: _854  and  _855
REMARK  355  A    between atoms: _854  and  _857
REMARK  356  A    between atoms: _857  and  _858
REMARK  357  A    between atoms: _858  and  _859
REMARK  358  A    between atoms: _864  and  _866
REMARK  359  A    between atoms: _866  and  _867
REMARK  360  A    between atoms: _866  and  _869
REMARK  361  A    between atoms: _869  and  _870
REMARK  362  A    between atoms: _873  and  _875
REMARK  363  A    between atoms: _875  and  _876
REMARK  364  A    between atoms: _875  and  _878
REMARK  365  A    between atoms: _878  and  _879
REMARK  366  A    between atoms: _882  and  _884
REMARK  367  A    between atoms: _884  and  _885
REMARK  368  A    between atoms: _884  and  _887
REMARK  369  A    between atoms: _887  and  _888
REMARK  370  A    between atoms: _895  and  _896
REMARK  371  A    between atoms: _901  and  _903
REMARK  372  A    between atoms: _903  and  _904
REMARK  373  A    between atoms: _903  and  _906
REMARK  374  A    between atoms: _906  and  _907
REMARK  375  A    between atoms: _912  and  _913
REMARK  376  A    between atoms: _915  and  _917
REMARK  377  A    between atoms: _917  and  _918
REMARK  378  A    between atoms: _917  and  _920
REMARK  379  A    between atoms: _920  and  _921
REMARK  380  A    between atoms: _926  and  _928
REMARK  381  A    between atoms: _928  and  _929
REMARK  382  A    between atoms: _928  and  _931
REMARK  383  A    between atoms: _931  and  _932
REMARK  384  A    between atoms: _938  and  _940
REMARK  385  A    between atoms: _940  and  _941
REMARK  386  A    between atoms: _940  and  _943
REMARK  387  A    between atoms: _943  and  _944
REMARK  388  A    between atoms: _947  and  _949
REMARK  389  A    between atoms: _949  and  _950
REMARK  390  A    between atoms: _949  and  _952
REMARK  391  A    between atoms: _952  and  _953
REMARK  392  A    between atoms: _958  and  _960
REMARK  393  A    between atoms: _960  and  _961
REMARK  394  A    between atoms: _960  and  _963
REMARK  395  A    between atoms: _963  and  _964
REMARK  396  A    between atoms: _970  and  _972
REMARK  397  A    between atoms: _972  and  _973
REMARK  398  A    between atoms: _972  and  _975
REMARK  399  A    between atoms: _975  and  _976
REMARK  400  A    between atoms: _976  and  _977
REMARK  401  A    between atoms: _979  and  _981
REMARK  402  A    between atoms: _981  and  _982
REMARK  403  A    between atoms: _981  and  _984
REMARK  404  A    between atoms: _984  and  _985
REMARK  405  A    between atoms: _988  and  _990
REMARK  406  A    between atoms: _990  and  _991
REMARK  407  A    between atoms: _990  and  _993
REMARK  408  A    between atoms: _993  and  _994
REMARK  409  A    between atoms: _999  and  _1001
REMARK  410  A    between atoms: _1001  and  _1002
REMARK  411  A    between atoms: _1001  and  _1004
REMARK  412  A    between atoms: _1004  and  _1005
REMARK  413  A    between atoms: _1010  and  _1011
REMARK                            x       y       z     vdW  Elec       q    Type
REMARK                         _______ _______ _______ _____ _____    ______ ____
ROOT
ATOM      1  CA  SER A   1     -21.255 -25.439  21.280  0.00  0.00    +0.163 C 
ENDROOT
BRANCH   1   2
ATOM      2  N   SER A   1     -21.488 -25.960  22.625  0.00  0.00    -0.237 NA
ATOM      3  H   SER A   1     -21.266 -26.956  22.825  0.00  0.00    +0.142 HD
ENDBRANCH   1   2
BRANCH   1   4
ATOM      4  C   SER A   1     -22.377 -25.818  20.318  0.00  0.00    +0.227 C 
ATOM      5  O   SER A   1     -22.708 -26.997  20.165  0.00  0.00    -0.287 OA
ENDBRANCH   1   4
BRANCH   1   6
ATOM      6  CB  SER A   1     -19.911 -25.922  20.733  0.00  0.00    +0.162 C 
BRANCH   6   7
ATOM      7  OG  SER A   1     -18.845 -25.515  21.570  0.00  0.00    -0.380 OA
ATOM      8  H   SER A   1     -17.989 -25.840  21.194  0.00  0.00    +0.211 HD
ENDBRANCH   6   7
ENDBRANCH   1   6
TORSDOF 4
REMARK  Name = ../refined-set-2016/3drg/3drg_pocket.pdb
REMARK  413 active torsions:
REMARK  status: ('A' for Active; 'I' for Inactive)
REMARK    1  A    between atoms: _1  and  _3
REMARK    2  A    between atoms: _3  and  _4
REMARK    3  A    between atoms: _3  and  _6
REMARK    4  A    between atoms: _6  and  _7
REMARK    5  A    between atoms: _12  and  _13
REMARK    6  A    between atoms: _15  and  _17
REMARK    7  A    between atoms: _17  and  _18
REMARK    8  A    between atoms: _17  and  _20
REMARK    9  A    between atoms: _20  and  _21
REMARK   10  A    between atoms: _21  and  _22
REMARK   11  A    between atoms: _27  and  _29
REMARK   12  A    between atoms: _29  and  _30
REMARK   13  A    between atoms: _29  and  _32
REMARK   14  A    between atoms: _32  and  _33
REMARK   15  A    between atoms: _35  and  _37
REMARK   16  A    between atoms: _37  and  _38
REMARK   17  A    between atoms: _37  and  _40
REMARK   18  A    between atoms: _40  and  _41
REMARK   19  A    between atoms: _44  and  _46
REMARK   20  A    between atoms: _46  and  _47
REMARK   21  A    between atoms: _46  and  _49
REMARK   22  A    between atoms: _49  and  _50
REMARK   23  A    between atoms: _52  and  _54
REMARK   24  A    between atoms: _54  and  _55
REMARK   25  A    between atoms: _54  and  _57
REMARK   26  A    between atoms: _57  and  _58
REMARK   27  A    between atoms: _61  and  _63
REMARK   28  A    between atoms: _63  and  _64
REMARK   29  A    between atoms: _63  and  _66
REMARK   30  A    between atoms: _66  and  _67
REMARK   31  A    between atoms: _69  and  _71
REMARK   32  A    between atoms: _71  and  _72
REMARK   33  A    between atoms: _74  and  _76
REMARK   34  A    between atoms: _76  and  _77
REMARK   35  A    between atoms: _76  and  _79
REMARK   36  A    between atoms: _79  and  _80
REMARK   37  A    between atoms: _82  and  _84
REMARK   38  A    between atoms: _84  and  _85
REMARK   39  A    between atoms: _84  and  _87
REMARK   40  A    between atoms: _87  and  _88
REMARK   41  A    between atoms: _93  and  _95
REMARK   42  A    between atoms: _95  and  _96
REMARK   43  A    between atoms: _95  and  _98
REMARK   44  A    between atoms: _98  and  _99
REMARK   45  A    between atoms: _102  and  _104
REMARK   46  A    between atoms: _104  and  _105
REMARK   47  A    between atoms: _108  and  _110
REMARK   48  A    between atoms: _110  and  _111
REMARK   49  A    between atoms: _110  and  _113
REMARK   50  A    between atoms: _113  and  _114
REMARK   51  A    between atoms: _117  and  _119
REMARK   52  A    between atoms: _119  and  _120
REMARK   53  A    between atoms: _119  and  _122
REMARK   54  A    between atoms: _122  and  _123
REMARK   55  A    between atoms: _129  and  _131
REMARK   56  A    between atoms: _131  and  _132
REMARK   57  A    between atoms: _135  and  _137
REMARK   58  A    between atoms: _137  and  _138
REMARK   59  A    between atoms: _137  and  _140
REMARK   60  A    between atoms: _140  and  _141
REMARK   61  A    between atoms: _144  and  _146
REMARK   62  A    between atoms: _146  and  _147
REMARK   63  A    between atoms: _146  and  _149
REMARK   64  A    between atoms: _149  and  _150
REMARK   65  A    between atoms: _152  and  _154
REMARK   66  A    between atoms: _154  and  _155
REMARK   67  A    between atoms: _157  and  _159
REMARK   68  A    between atoms: _159  and  _160
REMARK   69  A    between atoms: _162  and  _164
REMARK   70  A    between atoms: _164  and  _165
REMARK   71  A    between atoms: _164  and  _167
REMARK   72  A    between atoms: _167  and  _168
REMARK   73  A    between atoms: _168  and  _169
REMARK   74  A    between atoms: _174  and  _176
REMARK   75  A    between atoms: _176  and  _177
REMARK   76  A    between atoms: _176  and  _179
REMARK   77  A    between atoms: _179  and  _180
REMARK   78  A    between atoms: _183  and  _185
REMARK   79  A    between atoms: _185  and  _186
REMARK   80  A    between atoms: _188  and  _190
REMARK   81  A    between atoms: _190  and  _191
REMARK   82  A    between atoms: _190  and  _193
REMARK   83  A    between atoms: _193  and  _194
REMARK   84  A    between atoms: _197  and  _199
REMARK   85  A    between atoms: _199  and  _200
REMARK   86  A    between atoms: _199  and  _202
REMARK   87  A    between atoms: _202  and  _203
REMARK   88  A    between atoms: _209  and  _211
REMARK   89  A    between atoms: _211  and  _212
REMARK   90  A    between atoms: _211  and  _214
REMARK   91  A    between atoms: _214  and  _215
REMARK   92  A    between atoms: _218  and  _220
REMARK   93  A    between atoms: _220  and  _221
REMARK   94  A    between atoms: _220  and  _223
REMARK   95  A    between atoms: _223  and  _224
REMARK   96  A    between atoms: _230  and  _232
REMARK   97  A    between atoms: _232  and  _233
REMARK   98  A    between atoms: _232  and  _235
REMARK   99  A    between atoms: _235  and  _236
REMARK  100  A    between atoms: _242  and  _244
REMARK  101  A    between atoms: _244  and  _245
REMARK  102  A    between atoms: _244  and  _247
REMARK  103  A    between atoms: _247  and  _248
REMARK  104  A    between atoms: _251  and  _253
REMARK  105  A    between atoms: _253  and  _254
REMARK  106  A    between atoms: _253  and  _256
REMARK  107  A    between atoms: _256  and  _257
REMARK  108  A    between atoms: _260  and  _262
REMARK  109  A    between atoms: _262  and  _263
REMARK  110  A    between atoms: _262  and  _265
REMARK  111  A    between atoms: _265  and  _266
REMARK  112  A    between atoms: _266  and  _267
REMARK  113  A    between atoms: _267  and  _268
REMARK  114  A    between atoms: _277  and  _279
REMARK  115  A    between atoms: _279  and  _280
REMARK  116  A    between atoms: _279  and  _282
REMARK  117  A    between atoms: _282  and  _283
REMARK  118  A    between atoms: _286  and  _288
REMARK  119  A    between atoms: _288  and  _289
REMARK  120  A    between atoms: _288  and  _291
REMARK  121  A    between atoms: _291  and  _292
REMARK  122  A    between atoms: _292  and  _293
REMARK  123  A    between atoms: _298  and  _300
REMARK  124  A    between atoms: _300  and  _301
REMARK  125  A    between atoms: _300  and  _303
REMARK  126  A    between atoms: _303  and  _304
REMARK  127  A    between atoms: _306  and  _308
REMARK  128  A    between atoms: _308  and  _309
REMARK  129  A    between atoms: _311  and  _313
REMARK  130  A    between atoms: _313  and  _314
REMARK  131  A    between atoms: _313  and  _316
REMARK  132  A    between atoms: _316  and  _317
REMARK  133  A    between atoms: _322  and  _324
REMARK  134  A    between atoms: _324  and  _325
REMARK  135  A    between atoms: _327  and  _329
REMARK  136  A    between atoms: _329  and  _330
REMARK  137  A    between atoms: _329  and  _332
REMARK  138  A    between atoms: _332  and  _333
REMARK  139  A    between atoms: _339  and  _341
REMARK  140  A    between atoms: _341  and  _342
REMARK  141  A    between atoms: _341  and  _344
REMARK  142  A    between atoms: _344  and  _345
REMARK  143  A    between atoms: _348  and  _350
REMARK  144  A    between atoms: _350  and  _351
REMARK  145  A    between atoms: _350  and  _353
REMARK  146  A    between atoms: _353  and  _354
REMARK  147  A    between atoms: _354  and  _355
REMARK  148  A    between atoms: _358  and  _360
REMARK  149  A    between atoms: _360  and  _361
REMARK  150  A    between atoms: _360  and  _363
REMARK  151  A    between atoms: _363  and  _364
REMARK  152  A    between atoms: _367  and  _369
REMARK  153  A    between atoms: _369  and  _370
REMARK  154  A    between atoms: _369  and  _372
REMARK  155  A    between atoms: _375  and  _377
REMARK  156  A    between atoms: _377  and  _378
REMARK  157  A    between atoms: _377  and  _380
REMARK  158  A    between atoms: _380  and  _381
REMARK  159  A    between atoms: _384  and  _386
REMARK  160  A    between atoms: _386  and  _387
REMARK  161  A    between atoms: _386  and  _389
REMARK  162  A    between atoms: _389  and  _390
REMARK  163  A    between atoms: _395  and  _397
REMARK  164  A    between atoms: _397  and  _398
REMARK  165  A    between atoms: _400  and  _402
REMARK  166  A    between atoms: _402  and  _403
REMARK  167  A    between atoms: _402  and  _405
REMARK  168  A    between atoms: _405  and  _406
REMARK  169  A    between atoms: _406  and  _407
REMARK  170  A    between atoms: _409  and  _411
REMARK  171  A    between atoms: _411  and  _412
REMARK  172  A    between atoms: _411  and  _414
REMARK  173  A    between atoms: _417  and  _419
REMARK  174  A    between atoms: _419  and  _420
REMARK  175  A    between atoms: _419  and  _422
REMARK  176  A    between atoms: _422  and  _423
REMARK  177  A    between atoms: _425  and  _427
REMARK  178  A    between atoms: _427  and  _428
REMARK  179  A    between atoms: _427  and  _430
REMARK  180  A    between atoms: _430  and  _431
REMARK  181  A    between atoms: _433  and  _435
REMARK  182  A    between atoms: _435  and  _436
REMARK  183  A    between atoms: _435  and  _438
REMARK  184  A    between atoms: _438  and  _439
REMARK  185  A    between atoms: _439  and  _440
REMARK  186  A    between atoms: _445  and  _447
REMARK  187  A    between atoms: _447  and  _448
REMARK  188  A    between atoms: _451  and  _453
REMARK  189  A    between atoms: _453  and  _454
REMARK  190  A    between atoms: _453  and  _456
REMARK  191  A    between atoms: _456  and  _457
REMARK  192  A    between atoms: _457  and  _458
REMARK  193  A    between atoms: _460  and  _462
REMARK  194  A    between atoms: _462  and  _463
REMARK  195  A    between atoms: _462  and  _465
REMARK  196  A    between atoms: _465  and  _466
REMARK  197  A    between atoms: _471  and  _472
REMARK  198  A    between atoms: _474  and  _476
REMARK  199  A    between atoms: _476  and  _477
REMARK  200  A    between atoms: _476  and  _479
REMARK  201  A    between atoms: _479  and  _480
REMARK  202  A    between atoms: _483  and  _485
REMARK  203  A    between atoms: _485  and  _486
REMARK  204  A    between atoms: _485  and  _488
REMARK  205  A    between atoms: _488  and  _489
REMARK  206  A    between atoms: _491  and  _493
REMARK  207  A    between atoms: _493  and  _494
REMARK  208  A    between atoms: _493  and  _496
REMARK  209  A    between atoms: _496  and  _497
REMARK  210  A    between atoms: _500  and  _502
REMARK  211  A    between atoms: _502  and  _503
REMARK  212  A    between atoms: _502  and  _505
REMARK  213  A    between atoms: _505  and  _506
REMARK  214  A    between atoms: _506  and  _507
REMARK  215  A    between atoms: _509  and  _511
REMARK  216  A    between atoms: _511  and  _512
REMARK  217  A    between atoms: _511  and  _514
REMARK  218  A    between atoms: _514  and  _515
REMARK  219  A    between atoms: _520  and  _521
REMARK  220  A    between atoms: _523  and  _525
REMARK  221  A    between atoms: _525  and  _526
REMARK  222  A    between atoms: _525  and  _528
REMARK  223  A    between atoms: _528  and  _529
REMARK  224  A    between atoms: _529  and  _530
REMARK  225  A    between atoms: _530  and  _531
REMARK  226  A    between atoms: _540  and  _542
REMARK  227  A    between atoms: _542  and  _543
REMARK  228  A    between atoms: _542  and  _545
REMARK  229  A    between atoms: _545  and  _546
REMARK  230  A    between atoms: _548  and  _550
REMARK  231  A    between atoms: _550  and  _551
REMARK  232  A    between atoms: _550  and  _553
REMARK  233  A    between atoms: _553  and  _554
REMARK  234  A    between atoms: _559  and  _560
REMARK  235  A    between atoms: _562  and  _564
REMARK  236  A    between atoms: _564  and  _565
REMARK  237  A    between atoms: _568  and  _570
REMARK  238  A    between atoms: _570  and  _571
REMARK  239  A    between atoms: _574  and  _576
REMARK  240  A    between atoms: _576  and  _577
REMARK  241  A    between atoms: _576  and  _579
REMARK  242  A    between atoms: _579  and  _580
REMARK  243  A    between atoms: _580  and  _581
REMARK  244  A    between atoms: _581  and  _582
REMARK  245  A    between atoms: _591  and  _593
REMARK  246  A    between atoms: _593  and  _594
REMARK  247  A    between atoms: _593  and  _596
REMARK  248  A    between atoms: _599  and  _601
REMARK  249  A    between atoms: _601  and  _602
REMARK  250  A    between atoms: _604  and  _606
REMARK  251  A    between atoms: _606  and  _607
REMARK  252  A    between atoms: _606  and  _609
REMARK  253  A    between atoms: _609  and  _610
REMARK  254  A    between atoms: _613  and  _615
REMARK  255  A    between atoms: _615  and  _616
REMARK  256  A    between atoms: _619  and  _621
REMARK  257  A    between atoms: _621  and  _622
REMARK  258  A    between atoms: _621  and  _624
REMARK  259  A    between atoms: _624  and  _625
REMARK  260  A    between atoms: _628  and  _630
REMARK  261  A    between atoms: _630  and  _631
REMARK  262  A    between atoms: _630  and  _633
REMARK  263  A    between atoms: _633  and  _634
REMARK  264  A    between atoms: _639  and  _640
REMARK  265  A    between atoms: _642  and  _644
REMARK  266  A    between atoms: _644  and  _645
REMARK  267  A    between atoms: _644  and  _647
REMARK  268  A    between atoms: _647  and  _648
REMARK  269  A    between atoms: _648  and  _649
REMARK  270  A    between atoms: _651  and  _653
REMARK  271  A    between atoms: _653  and  _654
REMARK  272  A    between atoms: _653  and  _656
REMARK  273  A    between atoms: _656  and  _657
REMARK  274  A    between atoms: _657  and  _658
REMARK  275  A    between atoms: _661  and  _663
REMARK  276  A    between atoms: _663  and  _664
REMARK  277  A    between atoms: _663  and  _666
REMARK  278  A    between atoms: _666  and  _667
REMARK  279  A    between atoms: _673  and  _675
REMARK  280  A    between atoms: _675  and  _676
REMARK  281  A    between atoms: _675  and  _678
REMARK  282  A    between atoms: _678  and  _679
REMARK  283  A    between atoms: _684  and  _686
REMARK  284  A    between atoms: _686  and  _687
REMARK  285  A    between atoms: _686  and  _689
REMARK  286  A    between atoms: _689  and  _690
REMARK  287  A    between atoms: _700  and  _702
REMARK  288  A    between atoms: _702  and  _703
REMARK  289  A    between atoms: _702  and  _705
REMARK  290  A    between atoms: _708  and  _710
REMARK  291  A    between atoms: _710  and  _711
REMARK  292  A    between atoms: _710  and  _713
REMARK  293  A    between atoms: _713  and  _714
REMARK  294  A    between atoms: _717  and  _719
REMARK  295  A    between atoms: _719  and  _720
REMARK  296  A    between atoms: _719  and  _722
REMARK  297  A    between atoms: _722  and  _723
REMARK  298  A    between atoms: _723  and  _724
REMARK  299  A    between atoms: _726  and  _728
REMARK  300  A    between atoms: _728  and  _729
REMARK  301  A    between atoms: _728  and  _731
REMARK  302  A    between atoms: _731  and  _732
REMARK  303  A    between atoms: _735  and  _737
REMARK  304  A    between atoms: _737  and  _738
REMARK  305  A    between atoms: _737  and  _740
REMARK  306  A    between atoms: _740  and  _741
REMARK  307  A    between atoms: _744  and  _746
REMARK  308  A    between atoms: _746  and  _747
REMARK  309  A    between atoms: _746  and  _749
REMARK  310  A    between atoms: _749  and  _750
REMARK  311  A    between atoms: _753  and  _755
REMARK  312  A    between atoms: _755  and  _756
REMARK  313  A    between atoms: _755  and  _758
REMARK  314  A    between atoms: _758  and  _759
REMARK  315  A    between atoms: _762  and  _764
REMARK  316  A    between atoms: _764  and  _765
REMARK  317  A    between atoms: _767  and  _769
REMARK  318  A    between atoms: _769  and  _770
REMARK  319  A    between atoms: _769  and  _772
REMARK  320  A    between atoms: _772  and  _773
REMARK  321  A    between atoms: _775  and  _777
REMARK  322  A    between atoms: _777  and  _778
REMARK  323  A    between atoms: _777  and  _780
REMARK  324  A    between atoms: _780  and  _781
REMARK  325  A    between atoms: _791  and  _793
REMARK  326  A    between atoms: _793  and  _794
REMARK  327  A    between atoms: _793  and  _796
REMARK  328  A    between atoms: _796  and  _797
REMARK  329  A    between atoms: _799  and  _801
REMARK  330  A    between atoms: _801  and  _802
REMARK  331  A    between atoms: _801  and  _804
REMARK  332  A    between atoms: _804  and  _805
REMARK  333  A    between atoms: _808  and  _810
REMARK  334  A    between atoms: _810  and  _811
REMARK  335  A    between atoms: _814  and  _816
REMARK  336  A    between atoms: _816  and  _817
REMARK  337  A    between atoms: _816  and  _819
REMARK  338  A    between atoms: _819  and  _820
REMARK  339  A    between atoms: _822  and  _824
REMARK  340  A    between atoms: _824  and  _825
REMARK  341  A    between atoms: _824  and  _827
REMARK  342  A    between atoms: _827  and  _828
REMARK  343  A    between atoms: _828  and  _829
REMARK  344  A    between atoms: _832  and  _834
REMARK  345  A    between atoms: _834  and  _835
REMARK  346  A    between atoms: _834  and  _837
REMARK  347  A    between atoms: _837  and  _838
REMARK  348  A    between atoms: _840  and  _842
REMARK  349  A    between atoms: _842  and  _843
REMARK  350  A    between atoms: _842  and  _845
REMARK  351  A    between atoms: _845  and  _846
REMARK  352  A    between atoms: _846  and  _847
REMARK  353  A    between atoms: _852  and  _854
REMARK  354  A    between atoms: _854  and  _855
REMARK  355  A    between atoms: _854  and  _857
REMARK  356  A    between atoms: _857  and  _858
REMARK  357  A    between atoms: _858  and  _859
REMARK  358  A    between atoms: _864  and  _866
REMARK  359  A    between atoms: _866  and  _867
REMARK  360  A    between atoms: _866  and  _869
REMARK  361  A    between atoms: _869  and  _870
REMARK  362  A    between atoms: _873  and  _875
REMARK  363  A    between atoms: _875  and  _876
REMARK  364  A    between atoms: _875  and  _878
REMARK  365  A    between atoms: _878  and  _879
REMARK  366  A    between atoms: _882  and  _884
REMARK  367  A    between atoms: _884  and  _885
REMARK  368  A    between atoms: _884  and  _887
REMARK  369  A    between atoms: _887  and  _888
REMARK  370  A    between atoms: _895  and  _896
REMARK  371  A    between atoms: _901  and  _903
REMARK  372  A    between atoms: _903  and  _904
REMARK  373  A    between atoms: _903  and  _906
REMARK  374  A    between atoms: _906  and  _907
REMARK  375  A    between atoms: _912  and  _913
REMARK  376  A    between atoms: _915  and  _917
REMARK  377  A    between atoms: _917  and  _918
REMARK  378  A    between atoms: _917  and  _920
REMARK  379  A    between atoms: _920  and  _921
REMARK  380  A    between atoms: _926  and  _928
REMARK  381  A    between atoms: _928  and  _929
REMARK  382  A    between atoms: _928  and  _931
REMARK  383  A    between atoms: _931  and  _932
REMARK  384  A    between atoms: _938  and  _940
REMARK  385  A    between atoms: _940  and  _941
REMARK  386  A    between atoms: _940  and  _943
REMARK  387  A    between atoms: _943  and  _944
REMARK  388  A    between atoms: _947  and  _949
REMARK  389  A    between atoms: _949  and  _950
REMARK  390  A    between atoms: _949  and  _952
REMARK  391  A    between atoms: _952  and  _953
REMARK  392  A    between atoms: _958  and  _960
REMARK  393  A    between atoms: _960  and  _961
REMARK  394  A    between atoms: _960  and  _963
REMARK  395  A    between atoms: _963  and  _964
REMARK  396  A    between atoms: _970  and  _972
REMARK  397  A    between atoms: _972  and  _973
REMARK  398  A    between atoms: _972  and  _975
REMARK  399  A    between atoms: _975  and  _976
REMARK  400  A    between atoms: _976  and  _977
REMARK  401  A    between atoms: _979  and  _981
REMARK  402  A    between atoms: _981  and  _982
REMARK  403  A    between atoms: _981  and  _984
REMARK  404  A    between atoms: _984  and  _985
REMARK  405  A    between atoms: _988  and  _990
REMARK  406  A    between atoms: _990  and  _991
REMARK  407  A    between atoms: _990  and  _993
REMARK  408  A    between atoms: _993  and  _994
REMARK  409  A    between atoms: _999  and  _1001
REMARK  410  A    between atoms: _1001  and  _1002
REMARK  411  A    between atoms: _1001  and  _1004
REMARK  412  A    between atoms: _1004  and  _1005
REMARK  413  A    between atoms: _1010  and  _1011
REMARK                            x       y       z     vdW  Elec       q    Type
REMARK                         _______ _______ _______ _____ _____    ______ ____
ROOT
ATOM      1  CA  ARG A   4      -4.284 -24.339  16.467  0.00  0.00    +0.149 C 
ENDROOT
BRANCH   1   3
ATOM      2  C   ALA A   3      -3.927 -25.232  14.225  0.00  0.00    +0.241 C 
ATOM      3  N   ARG A   4      -4.735 -25.014  15.258  0.00  0.00    -0.297 N 
ATOM      4  H   ARG A   4      -5.722 -25.336  15.201  0.00  0.00    +0.150 HD
ATOM      5  O   ALA A   3      -2.707 -25.055  14.271  0.00  0.00    -0.273 OA
BRANCH   2   6
ATOM      6  CA  ALA A   3      -4.598 -25.740  12.952  0.00  0.00    +0.149 C 
ATOM      7  CB  ALA A   3      -4.906 -27.222  13.057  0.00  0.00    +0.031 C 
BRANCH   6   9
ATOM      8  C   ALA A   2      -3.701 -24.259  11.233  0.00  0.00    +0.241 C 
ATOM      9  N   ALA A   3      -3.772 -25.469  11.781  0.00  0.00    -0.297 N 
ATOM     10  H   ALA A   3      -3.222 -26.245  11.362  0.00  0.00    +0.150 HD
ATOM     11  O   ALA A   2      -4.346 -23.292  11.647  0.00  0.00    -0.273 OA
BRANCH   8  12
ATOM     12  CA  ALA A   2      -2.770 -24.132  10.030  0.00  0.00    +0.149 C 
ATOM     13  CB  ALA A   2      -2.340 -22.684   9.815  0.00  0.00    +0.031 C 
BRANCH  12  16
ATOM     14  C   TYR A   1      -3.373 -25.951   8.516  0.00  0.00    +0.239 C 
ATOM     15  O   TYR A   1      -2.760 -26.794   9.177  0.00  0.00    -0.274 OA
ATOM     16  N   ALA A   2      -3.407 -24.659   8.831  0.00  0.00    -0.297 N 
ATOM     17  H   ALA A   2      -3.906 -24.002   8.198  0.00  0.00    +0.150 HD
BRANCH  14  18
ATOM     18  CA  TYR A   1      -4.143 -26.342   7.253  0.00  0.00    +0.149 C 
BRANCH  18  19
ATOM     19  N   TYR A   1      -3.237 -26.703   6.168  0.00  0.00    -0.238 NA
ATOM     20  H   TYR A   1      -2.713 -27.599   6.235  0.00  0.00    +0.142 HD
ENDBRANCH  18  19
BRANCH  18  21
ATOM     21  CB  TYR A   1      -5.113 -27.500   7.519  0.00  0.00    +0.053 C 
BRANCH  21  22
ATOM     22  CG  TYR A   1      -6.113 -27.321   8.648  0.00  0.00    -0.020 A 
ATOM     23  CD2 TYR A   1      -6.521 -28.418   9.405  0.00  0.00    -0.001 A 
ATOM     24  CE2 TYR A   1      -7.446 -28.284  10.428  0.00  0.00    +0.036 A 
ATOM     25  CZ  TYR A   1      -7.986 -27.041  10.701  0.00  0.00    +0.134 A 
ATOM     26  CE1 TYR A   1      -7.610 -25.933   9.958  0.00  0.00    +0.036 A 
ATOM     27  CD1 TYR A   1      -6.684 -26.079   8.930  0.00  0.00    -0.001 A 
BRANCH  25  28
ATOM     28  OH  TYR A   1      -8.903 -26.915  11.716  0.00  0.00    -0.506 OA
ATOM     29  HH  TYR A   1      -9.191 -25.970  11.783  0.00  0.00    +0.292 HD
ENDBRANCH  25  28
ENDBRANCH  21  22
ENDBRANCH  18  21
ENDBRANCH  14  18
ENDBRANCH  12  16
ENDBRANCH   8  12
ENDBRANCH   6   9
ENDBRANCH   2   6
ENDBRANCH   1   3
BRANCH   1  30
ATOM     30  C   ARG A   4      -4.382 -25.198  17.722  0.00  0.00    +0.241 C 
ATOM     31  N   VAL A   5      -3.486 -24.926  18.671  0.00  0.00    -0.297 N 
ATOM     32  H   VAL A   5      -2.721 -24.257  18.449  0.00  0.00    +0.150 HD
ATOM     33  O   ARG A   4      -5.244 -26.074  17.824  0.00  0.00    -0.273 OA
BRANCH  31  34
ATOM     34  CA  VAL A   5      -3.522 -25.519  20.007  0.00  0.00    +0.149 C 
BRANCH  34  35
ATOM     35  C   VAL A   5      -4.809 -25.101  20.721  0.00  0.00    +0.241 C 
ATOM     36  N   GLY A   6      -5.391 -26.031  21.474  0.00  0.00    -0.295 N 
ATOM     37  H   GLY A   6      -4.974 -26.983  21.500  0.00  0.00    +0.150 HD
ATOM     38  O   VAL A   5      -5.268 -23.966  20.574  0.00  0.00    -0.273 OA
BRANCH  36  39
ATOM     39  CA  GLY A   6      -6.592 -25.770  22.266  0.00  0.00    +0.176 C 
BRANCH  39  40
ATOM     40  C   GLY A   6      -6.657 -26.698  23.462  0.00  0.00    +0.243 C 
ATOM     41  O   GLY A   6      -5.677 -26.844  24.199  0.00  0.00    -0.273 OA
ATOM     42  N   ASP A   7      -7.811 -27.332  23.652  0.00  0.00    -0.297 N 
ATOM     43  H   ASP A   7      -8.617 -27.110  23.034  0.00  0.00    +0.150 HD
BRANCH  42  44
ATOM     44  CA  ASP A   7      -7.978 -28.333  24.707  0.00  0.00    +0.148 C 
BRANCH  44  45
ATOM     45  C   ASP A   7      -7.304 -29.659  24.332  0.00  0.00    +0.227 C 
ATOM     46  O   ASP A   7      -6.492 -29.709  23.404  0.00  0.00    -0.286 OA
ENDBRANCH  44  45
BRANCH  44  47
ATOM     47  CB  ASP A   7      -9.466 -28.541  25.036  0.00  0.00    +0.142 C 
BRANCH  47  48
ATOM     48  CG  ASP A   7     -10.306 -28.906  23.815  0.00  0.00    +0.367 C 
ATOM     49  OD2 ASP A   7     -11.542 -29.003  23.965  0.00  0.00    -0.246 OA
ATOM     50  OD1 ASP A   7      -9.749 -29.096  22.710  0.00  0.00    -0.246 OA
ENDBRANCH  47  48
ENDBRANCH  44  47
ENDBRANCH  42  44
ENDBRANCH  39  40
ENDBRANCH  36  39
ENDBRANCH  34  35
BRANCH  34  51
ATOM     51  CB  VAL A   5      -2.286 -25.083  20.843  0.00  0.00    +0.027 C 
ATOM     52  CG2 VAL A   5      -2.395 -25.548  22.295  0.00  0.00    +0.002 C 
ATOM     53  CG1 VAL A   5      -1.001 -25.604  20.215  0.00  0.00    +0.002 C 
ENDBRANCH  34  51
ENDBRANCH  31  34
ENDBRANCH   1  30
BRANCH   1  54
ATOM     54  CB  ARG A   4      -5.093 -23.058  16.666  0.00  0.00    +0.033 C 
BRANCH  54  55
ATOM     55  CG  ARG A   4      -4.816 -21.983  15.629  0.00  0.00    +0.045 C 
BRANCH  55  56
ATOM     56  CD  ARG A   4      -5.866 -20.898  15.685  0.00  0.00    +0.174 C 
BRANCH  56  57
ATOM     57  NE  ARG A   4      -5.899 -20.227  16.981  0.00  0.00    -0.265 N 
ATOM     58  HE  ARG A   4      -5.065 -20.319  17.595  0.00  0.00    +0.259 HD
ATOM     59  CZ  ARG A   4      -6.922 -19.506  17.431  0.00  0.00    +0.342 C 
ATOM     60  NH2 ARG A   4      -6.849 -18.939  18.625  0.00  0.00    -0.292 N 
ATOM     61 HH21 ARG A   4      -5.995 -19.058  19.206  0.00  0.00    +0.255 HD
ATOM     62 HH22 ARG A   4      -7.646 -18.374  18.982  0.00  0.00    +0.255 HD
ATOM     63  NH1 ARG A   4      -8.017 -19.353  16.696  0.00  0.00    -0.292 N 
ATOM     64 HH11 ARG A   4      -8.811 -18.787  17.058  0.00  0.00    +0.255 HD
ATOM     65 HH12 ARG A   4      -8.081 -19.799  15.759  0.00  0.00    +0.255 HD
ENDBRANCH  56  57
ENDBRANCH  55  56
ENDBRANCH  54  55
ENDBRANCH   1  54
TORSDOF 24
REMARK  Name = ../refined-set-2016/3drg/3drg_pocket.pdb
REMARK  413 active torsions:
REMARK  status: ('A' for Active; 'I' for Inactive)
REMARK    1  A    between atoms: _1  and  _3
REMARK    2  A    between atoms: _3  and  _4
REMARK    3  A    between atoms: _3  and  _6
REMARK    4  A    between atoms: _6  and  _7
REMARK    5  A    between atoms: _12  and  _13
REMARK    6  A    between atoms: _15  and  _17
REMARK    7  A    between atoms: _17  and  _18
REMARK    8  A    between atoms: _17  and  _20
REMARK    9  A    between atoms: _20  and  _21
REMARK   10  A    between atoms: _21  and  _22
REMARK   11  A    between atoms: _27  and  _29
REMARK   12  A    between atoms: _29  and  _30
REMARK   13  A    between atoms: _29  and  _32
REMARK   14  A    between atoms: _32  and  _33
REMARK   15  A    between atoms: _35  and  _37
REMARK   16  A    between atoms: _37  and  _38
REMARK   17  A    between atoms: _37  and  _40
REMARK   18  A    between atoms: _40  and  _41
REMARK   19  A    between atoms: _44  and  _46
REMARK   20  A    between atoms: _46  and  _47
REMARK   21  A    between atoms: _46  and  _49
REMARK   22  A    between atoms: _49  and  _50
REMARK   23  A    between atoms: _52  and  _54
REMARK   24  A    between atoms: _54  and  _55
REMARK   25  A    between atoms: _54  and  _57
REMARK   26  A    between atoms: _57  and  _58
REMARK   27  A    between atoms: _61  and  _63
REMARK   28  A    between atoms: _63  and  _64
REMARK   29  A    between atoms: _63  and  _66
REMARK   30  A    between atoms: _66  and  _67
REMARK   31  A    between atoms: _69  and  _71
REMARK   32  A    between atoms: _71  and  _72
REMARK   33  A    between atoms: _74  and  _76
REMARK   34  A    between atoms: _76  and  _77
REMARK   35  A    between atoms: _76  and  _79
REMARK   36  A    between atoms: _79  and  _80
REMARK   37  A    between atoms: _82  and  _84
REMARK   38  A    between atoms: _84  and  _85
REMARK   39  A    between atoms: _84  and  _87
REMARK   40  A    between atoms: _87  and  _88
REMARK   41  A    between atoms: _93  and  _95
REMARK   42  A    between atoms: _95  and  _96
REMARK   43  A    between atoms: _95  and  _98
REMARK   44  A    between atoms: _98  and  _99
REMARK   45  A    between atoms: _102  and  _104
REMARK   46  A    between atoms: _104  and  _105
REMARK   47  A    between atoms: _108  and  _110
REMARK   48  A    between atoms: _110  and  _111
REMARK   49  A    between atoms: _110  and  _113
REMARK   50  A    between atoms: _113  and  _114
REMARK   51  A    between atoms: _117  and  _119
REMARK   52  A    between atoms: _119  and  _120
REMARK   53  A    between atoms: _119  and  _122
REMARK   54  A    between atoms: _122  and  _123
REMARK   55  A    between atoms: _129  and  _131
REMARK   56  A    between atoms: _131  and  _132
REMARK   57  A    between atoms: _135  and  _137
REMARK   58  A    between atoms: _137  and  _138
REMARK   59  A    between atoms: _137  and  _140
REMARK   60  A    between atoms: _140  and  _141
REMARK   61  A    between atoms: _144  and  _146
REMARK   62  A    between atoms: _146  and  _147
REMARK   63  A    between atoms: _146  and  _149
REMARK   64  A    between atoms: _149  and  _150
REMARK   65  A    between atoms: _152  and  _154
REMARK   66  A    between atoms: _154  and  _155
REMARK   67  A    between atoms: _157  and  _159
REMARK   68  A    between atoms: _159  and  _160
REMARK   69  A    between atoms: _162  and  _164
REMARK   70  A    between atoms: _164  and  _165
REMARK   71  A    between atoms: _164  and  _167
REMARK   72  A    between atoms: _167  and  _168
REMARK   73  A    between atoms: _168  and  _169
REMARK   74  A    between atoms: _174  and  _176
REMARK   75  A    between atoms: _176  and  _177
REMARK   76  A    between atoms: _176  and  _179
REMARK   77  A    between atoms: _179  and  _180
REMARK   78  A    between atoms: _183  and  _185
REMARK   79  A    between atoms: _185  and  _186
REMARK   80  A    between atoms: _188  and  _190
REMARK   81  A    between atoms: _190  and  _191
REMARK   82  A    between atoms: _190  and  _193
REMARK   83  A    between atoms: _193  and  _194
REMARK   84  A    between atoms: _197  and  _199
REMARK   85  A    between atoms: _199  and  _200
REMARK   86  A    between atoms: _199  and  _202
REMARK   87  A    between atoms: _202  and  _203
REMARK   88  A    between atoms: _209  and  _211
REMARK   89  A    between atoms: _211  and  _212
REMARK   90  A    between atoms: _211  and  _214
REMARK   91  A    between atoms: _214  and  _215
REMARK   92  A    between atoms: _218  and  _220
REMARK   93  A    between atoms: _220  and  _221
REMARK   94  A    between atoms: _220  and  _223
REMARK   95  A    between atoms: _223  and  _224
REMARK   96  A    between atoms: _230  and  _232
REMARK   97  A    between atoms: _232  and  _233
REMARK   98  A    between atoms: _232  and  _235
REMARK   99  A    between atoms: _235  and  _236
REMARK  100  A    between atoms: _242  and  _244
REMARK  101  A    between atoms: _244  and  _245
REMARK  102  A    between atoms: _244  and  _247
REMARK  103  A    between atoms: _247  and  _248
REMARK  104  A    between atoms: _251  and  _253
REMARK  105  A    between atoms: _253  and  _254
REMARK  106  A    between atoms: _253  and  _256
REMARK  107  A    between atoms: _256  and  _257
REMARK  108  A    between atoms: _260  and  _262
REMARK  109  A    between atoms: _262  and  _263
REMARK  110  A    between atoms: _262  and  _265
REMARK  111  A    between atoms: _265  and  _266
REMARK  112  A    between atoms: _266  and  _267
REMARK  113  A    between atoms: _267  and  _268
REMARK  114  A    between atoms: _277  and  _279
REMARK  115  A    between atoms: _279  and  _280
REMARK  116  A    between atoms: _279  and  _282
REMARK  117  A    between atoms: _282  and  _283
REMARK  118  A    between atoms: _286  and  _288
REMARK  119  A    between atoms: _288  and  _289
REMARK  120  A    between atoms: _288  and  _291
REMARK  121  A    between atoms: _291  and  _292
REMARK  122  A    between atoms: _292  and  _293
REMARK  123  A    between atoms: _298  and  _300
REMARK  124  A    between atoms: _300  and  _301
REMARK  125  A    between atoms: _300  and  _303
REMARK  126  A    between atoms: _303  and  _304
REMARK  127  A    between atoms: _306  and  _308
REMARK  128  A    between atoms: _308  and  _309
REMARK  129  A    between atoms: _311  and  _313
REMARK  130  A    between atoms: _313  and  _314
REMARK  131  A    between atoms: _313  and  _316
REMARK  132  A    between atoms: _316  and  _317
REMARK  133  A    between atoms: _322  and  _324
REMARK  134  A    between atoms: _324  and  _325
REMARK  135  A    between atoms: _327  and  _329
REMARK  136  A    between atoms: _329  and  _330
REMARK  137  A    between atoms: _329  and  _332
REMARK  138  A    between atoms: _332  and  _333
REMARK  139  A    between atoms: _339  and  _341
REMARK  140  A    between atoms: _341  and  _342
REMARK  141  A    between atoms: _341  and  _344
REMARK  142  A    between atoms: _344  and  _345
REMARK  143  A    between atoms: _348  and  _350
REMARK  144  A    between atoms: _350  and  _351
REMARK  145  A    between atoms: _350  and  _353
REMARK  146  A    between atoms: _353  and  _354
REMARK  147  A    between atoms: _354  and  _355
REMARK  148  A    between atoms: _358  and  _360
REMARK  149  A    between atoms: _360  and  _361
REMARK  150  A    between atoms: _360  and  _363
REMARK  151  A    between atoms: _363  and  _364
REMARK  152  A    between atoms: _367  and  _369
REMARK  153  A    between atoms: _369  and  _370
REMARK  154  A    between atoms: _369  and  _372
REMARK  155  A    between atoms: _375  and  _377
REMARK  156  A    between atoms: _377  and  _378
REMARK  157  A    between atoms: _377  and  _380
REMARK  158  A    between atoms: _380  and  _381
REMARK  159  A    between atoms: _384  and  _386
REMARK  160  A    between atoms: _386  and  _387
REMARK  161  A    between atoms: _386  and  _389
REMARK  162  A    between atoms: _389  and  _390
REMARK  163  A    between atoms: _395  and  _397
REMARK  164  A    between atoms: _397  and  _398
REMARK  165  A    between atoms: _400  and  _402
REMARK  166  A    between atoms: _402  and  _403
REMARK  167  A    between atoms: _402  and  _405
REMARK  168  A    between atoms: _405  and  _406
REMARK  169  A    between atoms: _406  and  _407
REMARK  170  A    between atoms: _409  and  _411
REMARK  171  A    between atoms: _411  and  _412
REMARK  172  A    between atoms: _411  and  _414
REMARK  173  A    between atoms: _417  and  _419
REMARK  174  A    between atoms: _419  and  _420
REMARK  175  A    between atoms: _419  and  _422
REMARK  176  A    between atoms: _422  and  _423
REMARK  177  A    between atoms: _425  and  _427
REMARK  178  A    between atoms: _427  and  _428
REMARK  179  A    between atoms: _427  and  _430
REMARK  180  A    between atoms: _430  and  _431
REMARK  181  A    between atoms: _433  and  _435
REMARK  182  A    between atoms: _435  and  _436
REMARK  183  A    between atoms: _435  and  _438
REMARK  184  A    between atoms: _438  and  _439
REMARK  185  A    between atoms: _439  and  _440
REMARK  186  A    between atoms: _445  and  _447
REMARK  187  A    between atoms: _447  and  _448
REMARK  188  A    between atoms: _451  and  _453
REMARK  189  A    between atoms: _453  and  _454
REMARK  190  A    between atoms: _453  and  _456
REMARK  191  A    between atoms: _456  and  _457
REMARK  192  A    between atoms: _457  and  _458
REMARK  193  A    between atoms: _460  and  _462
REMARK  194  A    between atoms: _462  and  _463
REMARK  195  A    between atoms: _462  and  _465
REMARK  196  A    between atoms: _465  and  _466
REMARK  197  A    between atoms: _471  and  _472
REMARK  198  A    between atoms: _474  and  _476
REMARK  199  A    between atoms: _476  and  _477
REMARK  200  A    between atoms: _476  and  _479
REMARK  201  A    between atoms: _479  and  _480
REMARK  202  A    between atoms: _483  and  _485
REMARK  203  A    between atoms: _485  and  _486
REMARK  204  A    between atoms: _485  and  _488
REMARK  205  A    between atoms: _488  and  _489
REMARK  206  A    between atoms: _491  and  _493
REMARK  207  A    between atoms: _493  and  _494
REMARK  208  A    between atoms: _493  and  _496
REMARK  209  A    between atoms: _496  and  _497
REMARK  210  A    between atoms: _500  and  _502
REMARK  211  A    between atoms: _502  and  _503
REMARK  212  A    between atoms: _502  and  _505
REMARK  213  A    between atoms: _505  and  _506
REMARK  214  A    between atoms: _506  and  _507
REMARK  215  A    between atoms: _509  and  _511
REMARK  216  A    between atoms: _511  and  _512
REMARK  217  A    between atoms: _511  and  _514
REMARK  218  A    between atoms: _514  and  _515
REMARK  219  A    between atoms: _520  and  _521
REMARK  220  A    between atoms: _523  and  _525
REMARK  221  A    between atoms: _525  and  _526
REMARK  222  A    between atoms: _525  and  _528
REMARK  223  A    between atoms: _528  and  _529
REMARK  224  A    between atoms: _529  and  _530
REMARK  225  A    between atoms: _530  and  _531
REMARK  226  A    between atoms: _540  and  _542
REMARK  227  A    between atoms: _542  and  _543
REMARK  228  A    between atoms: _542  and  _545
REMARK  229  A    between atoms: _545  and  _546
REMARK  230  A    between atoms: _548  and  _550
REMARK  231  A    between atoms: _550  and  _551
REMARK  232  A    between atoms: _550  and  _553
REMARK  233  A    between atoms: _553  and  _554
REMARK  234  A    between atoms: _559  and  _560
REMARK  235  A    between atoms: _562  and  _564
REMARK  236  A    between atoms: _564  and  _565
REMARK  237  A    between atoms: _568  and  _570
REMARK  238  A    between atoms: _570  and  _571
REMARK  239  A    between atoms: _574  and  _576
REMARK  240  A    between atoms: _576  and  _577
REMARK  241  A    between atoms: _576  and  _579
REMARK  242  A    between atoms: _579  and  _580
REMARK  243  A    between atoms: _580  and  _581
REMARK  244  A    between atoms: _581  and  _582
REMARK  245  A    between atoms: _591  and  _593
REMARK  246  A    between atoms: _593  and  _594
REMARK  247  A    between atoms: _593  and  _596
REMARK  248  A    between atoms: _599  and  _601
REMARK  249  A    between atoms: _601  and  _602
REMARK  250  A    between atoms: _604  and  _606
REMARK  251  A    between atoms: _606  and  _607
REMARK  252  A    between atoms: _606  and  _609
REMARK  253  A    between atoms: _609  and  _610
REMARK  254  A    between atoms: _613  and  _615
REMARK  255  A    between atoms: _615  and  _616
REMARK  256  A    between atoms: _619  and  _621
REMARK  257  A    between atoms: _621  and  _622
REMARK  258  A    between atoms: _621  and  _624
REMARK  259  A    between atoms: _624  and  _625
REMARK  260  A    between atoms: _628  and  _630
REMARK  261  A    between atoms: _630  and  _631
REMARK  262  A    between atoms: _630  and  _633
REMARK  263  A    between atoms: _633  and  _634
REMARK  264  A    between atoms: _639  and  _640
REMARK  265  A    between atoms: _642  and  _644
REMARK  266  A    between atoms: _644  and  _645
REMARK  267  A    between atoms: _644  and  _647
REMARK  268  A    between atoms: _647  and  _648
REMARK  269  A    between atoms: _648  and  _649
REMARK  270  A    between atoms: _651  and  _653
REMARK  271  A    between atoms: _653  and  _654
REMARK  272  A    between atoms: _653  and  _656
REMARK  273  A    between atoms: _656  and  _657
REMARK  274  A    between atoms: _657  and  _658
REMARK  275  A    between atoms: _661  and  _663
REMARK  276  A    between atoms: _663  and  _664
REMARK  277  A    between atoms: _663  and  _666
REMARK  278  A    between atoms: _666  and  _667
REMARK  279  A    between atoms: _673  and  _675
REMARK  280  A    between atoms: _675  and  _676
REMARK  281  A    between atoms: _675  and  _678
REMARK  282  A    between atoms: _678  and  _679
REMARK  283  A    between atoms: _684  and  _686
REMARK  284  A    between atoms: _686  and  _687
REMARK  285  A    between atoms: _686  and  _689
REMARK  286  A    between atoms: _689  and  _690
REMARK  287  A    between atoms: _700  and  _702
REMARK  288  A    between atoms: _702  and  _703
REMARK  289  A    between atoms: _702  and  _705
REMARK  290  A    between atoms: _708  and  _710
REMARK  291  A    between atoms: _710  and  _711
REMARK  292  A    between atoms: _710  and  _713
REMARK  293  A    between atoms: _713  and  _714
REMARK  294  A    between atoms: _717  and  _719
REMARK  295  A    between atoms: _719  and  _720
REMARK  296  A    between atoms: _719  and  _722
REMARK  297  A    between atoms: _722  and  _723
REMARK  298  A    between atoms: _723  and  _724
REMARK  299  A    between atoms: _726  and  _728
REMARK  300  A    between atoms: _728  and  _729
REMARK  301  A    between atoms: _728  and  _731
REMARK  302  A    between atoms: _731  and  _732
REMARK  303  A    between atoms: _735  and  _737
REMARK  304  A    between atoms: _737  and  _738
REMARK  305  A    between atoms: _737  and  _740
REMARK  306  A    between atoms: _740  and  _741
REMARK  307  A    between atoms: _744  and  _746
REMARK  308  A    between atoms: _746  and  _747
REMARK  309  A    between atoms: _746  and  _749
REMARK  310  A    between atoms: _749  and  _750
REMARK  311  A    between atoms: _753  and  _755
REMARK  312  A    between atoms: _755  and  _756
REMARK  313  A    between atoms: _755  and  _758
REMARK  314  A    between atoms: _758  and  _759
REMARK  315  A    between atoms: _762  and  _764
REMARK  316  A    between atoms: _764  and  _765
REMARK  317  A    between atoms: _767  and  _769
REMARK  318  A    between atoms: _769  and  _770
REMARK  319  A    between atoms: _769  and  _772
REMARK  320  A    between atoms: _772  and  _773
REMARK  321  A    between atoms: _775  and  _777
REMARK  322  A    between atoms: _777  and  _778
REMARK  323  A    between atoms: _777  and  _780
REMARK  324  A    between atoms: _780  and  _781
REMARK  325  A    between atoms: _791  and  _793
REMARK  326  A    between atoms: _793  and  _794
REMARK  327  A    between atoms: _793  and  _796
REMARK  328  A    between atoms: _796  and  _797
REMARK  329  A    between atoms: _799  and  _801
REMARK  330  A    between atoms: _801  and  _802
REMARK  331  A    between atoms: _801  and  _804
REMARK  332  A    between atoms: _804  and  _805
REMARK  333  A    between atoms: _808  and  _810
REMARK  334  A    between atoms: _810  and  _811
REMARK  335  A    between atoms: _814  and  _816
REMARK  336  A    between atoms: _816  and  _817
REMARK  337  A    between atoms: _816  and  _819
REMARK  338  A    between atoms: _819  and  _820
REMARK  339  A    between atoms: _822  and  _824
REMARK  340  A    between atoms: _824  and  _825
REMARK  341  A    between atoms: _824  and  _827
REMARK  342  A    between atoms: _827  and  _828
REMARK  343  A    between atoms: _828  and  _829
REMARK  344  A    between atoms: _832  and  _834
REMARK  345  A    between atoms: _834  and  _835
REMARK  346  A    between atoms: _834  and  _837
REMARK  347  A    between atoms: _837  and  _838
REMARK  348  A    between atoms: _840  and  _842
REMARK  349  A    between atoms: _842  and  _843
REMARK  350  A    between atoms: _842  and  _845
REMARK  351  A    between atoms: _845  and  _846
REMARK  352  A    between atoms: _846  and  _847
REMARK  353  A    between atoms: _852  and  _854
REMARK  354  A    between atoms: _854  and  _855
REMARK  355  A    between atoms: _854  and  _857
REMARK  356  A    between atoms: _857  and  _858
REMARK  357  A    between atoms: _858  and  _859
REMARK  358  A    between atoms: _864  and  _866
REMARK  359  A    between atoms: _866  and  _867
REMARK  360  A    between atoms: _866  and  _869
REMARK  361  A    between atoms: _869  and  _870
REMARK  362  A    between atoms: _873  and  _875
REMARK  363  A    between atoms: _875  and  _876
REMARK  364  A    between atoms: _875  and  _878
REMARK  365  A    between atoms: _878  and  _879
REMARK  366  A    between atoms: _882  and  _884
REMARK  367  A    between atoms: _884  and  _885
REMARK  368  A    between atoms: _884  and  _887
REMARK  369  A    between atoms: _887  and  _888
REMARK  370  A    between atoms: _895  and  _896
REMARK  371  A    between atoms: _901  and  _903
REMARK  372  A    between atoms: _903  and  _904
REMARK  373  A    between atoms: _903  and  _906
REMARK  374  A    between atoms: _906  and  _907
REMARK  375  A    between atoms: _912  and  _913
REMARK  376  A    between atoms: _915  and  _917
REMARK  377  A    between atoms: _917  and  _918
REMARK  378  A    between atoms: _917  and  _920
REMARK  379  A    between atoms: _920  and  _921
REMARK  380  A    between atoms: _926  and  _928
REMARK  381  A    between atoms: _928  and  _929
REMARK  382  A    between atoms: _928  and  _931
REMARK  383  A    between atoms: _931  and  _932
REMARK  384  A    between atoms: _938  and  _940
REMARK  385  A    between atoms: _940  and  _941
REMARK  386  A    between atoms: _940  and  _943
REMARK  387  A    between atoms: _943  and  _944
REMARK  388  A    between atoms: _947  and  _949
REMARK  389  A    between atoms: _949  and  _950
REMARK  390  A    between atoms: _949  and  _952
REMARK  391  A    between atoms: _952  and  _953
REMARK  392  A    between atoms: _958  and  _960
REMARK  393  A    between atoms: _960  and  _961
REMARK  394  A    between atoms: _960  and  _963
REMARK  395  A    between atoms: _963  and  _964
REMARK  396  A    between atoms: _970  and  _972
REMARK  397  A    between atoms: _972  and  _973
REMARK  398  A    between atoms: _972  and  _975
REMARK  399  A    between atoms: _975  and  _976
REMARK  400  A    between atoms: _976  and  _977
REMARK  401  A    between atoms: _979  and  _981
REMARK  402  A    between atoms: _981  and  _982
REMARK  403  A    between atoms: _981  and  _984
REMARK  404  A    between atoms: _984  and  _985
REMARK  405  A    between atoms: _988  and  _990
REMARK  406  A    between atoms: _990  and  _991
REMARK  407  A    between atoms: _990  and  _993
REMARK  408  A    between atoms: _993  and  _994
REMARK  409  A    between atoms: _999  and  _1001
REMARK  410  A    between atoms: _1001  and  _1002
REMARK  411  A    between atoms: _1001  and  _1004
REMARK  412  A    between atoms: _1004  and  _1005
REMARK  413  A    between atoms: _1010  and  _1011
REMARK                            x       y       z     vdW  Elec       q    Type
REMARK                         _______ _______ _______ _____ _____    ______ ____
ROOT
ATOM      1  CA  ALA A   1      -7.713 -29.926  19.613  0.00  0.00    +0.133 C 
ATOM      2  CB  ALA A   1      -6.785 -28.842  20.139  0.00  0.00    +0.027 C 
ENDROOT
BRANCH   1   3
ATOM      3  N   ALA A   1      -8.137 -30.807  20.703  0.00  0.00    -0.239 NA
ATOM      4  H   ALA A   1      -7.741 -30.653  21.652  0.00  0.00    +0.142 HD
ENDBRANCH   1   3
BRANCH   1   5
ATOM      5  C   ALA A   1      -7.055 -30.676  18.454  0.00  0.00    +0.224 C 
ATOM      6  O   ALA A   1      -7.361 -30.413  17.289  0.00  0.00    -0.287 OA
ENDBRANCH   1   5
TORSDOF 2
REMARK  Name = ../refined-set-2016/3drg/3drg_pocket.pdb
REMARK  413 active torsions:
REMARK  status: ('A' for Active; 'I' for Inactive)
REMARK    1  A    between atoms: _1  and  _3
REMARK    2  A    between atoms: _3  and  _4
REMARK    3  A    between atoms: _3  and  _6
REMARK    4  A    between atoms: _6  and  _7
REMARK    5  A    between atoms: _12  and  _13
REMARK    6  A    between atoms: _15  and  _17
REMARK    7  A    between atoms: _17  and  _18
REMARK    8  A    between atoms: _17  and  _20
REMARK    9  A    between atoms: _20  and  _21
REMARK   10  A    between atoms: _21  and  _22
REMARK   11  A    between atoms: _27  and  _29
REMARK   12  A    between atoms: _29  and  _30
REMARK   13  A    between atoms: _29  and  _32
REMARK   14  A    between atoms: _32  and  _33
REMARK   15  A    between atoms: _35  and  _37
REMARK   16  A    between atoms: _37  and  _38
REMARK   17  A    between atoms: _37  and  _40
REMARK   18  A    between atoms: _40  and  _41
REMARK   19  A    between atoms: _44  and  _46
REMARK   20  A    between atoms: _46  and  _47
REMARK   21  A    between atoms: _46  and  _49
REMARK   22  A    between atoms: _49  and  _50
REMARK   23  A    between atoms: _52  and  _54
REMARK   24  A    between atoms: _54  and  _55
REMARK   25  A    between atoms: _54  and  _57
REMARK   26  A    between atoms: _57  and  _58
REMARK   27  A    between atoms: _61  and  _63
REMARK   28  A    between atoms: _63  and  _64
REMARK   29  A    between atoms: _63  and  _66
REMARK   30  A    between atoms: _66  and  _67
REMARK   31  A    between atoms: _69  and  _71
REMARK   32  A    between atoms: _71  and  _72
REMARK   33  A    between atoms: _74  and  _76
REMARK   34  A    between atoms: _76  and  _77
REMARK   35  A    between atoms: _76  and  _79
REMARK   36  A    between atoms: _79  and  _80
REMARK   37  A    between atoms: _82  and  _84
REMARK   38  A    between atoms: _84  and  _85
REMARK   39  A    between atoms: _84  and  _87
REMARK   40  A    between atoms: _87  and  _88
REMARK   41  A    between atoms: _93  and  _95
REMARK   42  A    between atoms: _95  and  _96
REMARK   43  A    between atoms: _95  and  _98
REMARK   44  A    between atoms: _98  and  _99
REMARK   45  A    between atoms: _102  and  _104
REMARK   46  A    between atoms: _104  and  _105
REMARK   47  A    between atoms: _108  and  _110
REMARK   48  A    between atoms: _110  and  _111
REMARK   49  A    between atoms: _110  and  _113
REMARK   50  A    between atoms: _113  and  _114
REMARK   51  A    between atoms: _117  and  _119
REMARK   52  A    between atoms: _119  and  _120
REMARK   53  A    between atoms: _119  and  _122
REMARK   54  A    between atoms: _122  and  _123
REMARK   55  A    between atoms: _129  and  _131
REMARK   56  A    between atoms: _131  and  _132
REMARK   57  A    between atoms: _135  and  _137
REMARK   58  A    between atoms: _137  and  _138
REMARK   59  A    between atoms: _137  and  _140
REMARK   60  A    between atoms: _140  and  _141
REMARK   61  A    between atoms: _144  and  _146
REMARK   62  A    between atoms: _146  and  _147
REMARK   63  A    between atoms: _146  and  _149
REMARK   64  A    between atoms: _149  and  _150
REMARK   65  A    between atoms: _152  and  _154
REMARK   66  A    between atoms: _154  and  _155
REMARK   67  A    between atoms: _157  and  _159
REMARK   68  A    between atoms: _159  and  _160
REMARK   69  A    between atoms: _162  and  _164
REMARK   70  A    between atoms: _164  and  _165
REMARK   71  A    between atoms: _164  and  _167
REMARK   72  A    between atoms: _167  and  _168
REMARK   73  A    between atoms: _168  and  _169
REMARK   74  A    between atoms: _174  and  _176
REMARK   75  A    between atoms: _176  and  _177
REMARK   76  A    between atoms: _176  and  _179
REMARK   77  A    between atoms: _179  and  _180
REMARK   78  A    between atoms: _183  and  _185
REMARK   79  A    between atoms: _185  and  _186
REMARK   80  A    between atoms: _188  and  _190
REMARK   81  A    between atoms: _190  and  _191
REMARK   82  A    between atoms: _190  and  _193
REMARK   83  A    between atoms: _193  and  _194
REMARK   84  A    between atoms: _197  and  _199
REMARK   85  A    between atoms: _199  and  _200
REMARK   86  A    between atoms: _199  and  _202
REMARK   87  A    between atoms: _202  and  _203
REMARK   88  A    between atoms: _209  and  _211
REMARK   89  A    between atoms: _211  and  _212
REMARK   90  A    between atoms: _211  and  _214
REMARK   91  A    between atoms: _214  and  _215
REMARK   92  A    between atoms: _218  and  _220
REMARK   93  A    between atoms: _220  and  _221
REMARK   94  A    between atoms: _220  and  _223
REMARK   95  A    between atoms: _223  and  _224
REMARK   96  A    between atoms: _230  and  _232
REMARK   97  A    between atoms: _232  and  _233
REMARK   98  A    between atoms: _232  and  _235
REMARK   99  A    between atoms: _235  and  _236
REMARK  100  A    between atoms: _242  and  _244
REMARK  101  A    between atoms: _244  and  _245
REMARK  102  A    between atoms: _244  and  _247
REMARK  103  A    between atoms: _247  and  _248
REMARK  104  A    between atoms: _251  and  _253
REMARK  105  A    between atoms: _253  and  _254
REMARK  106  A    between atoms: _253  and  _256
REMARK  107  A    between atoms: _256  and  _257
REMARK  108  A    between atoms: _260  and  _262
REMARK  109  A    between atoms: _262  and  _263
REMARK  110  A    between atoms: _262  and  _265
REMARK  111  A    between atoms: _265  and  _266
REMARK  112  A    between atoms: _266  and  _267
REMARK  113  A    between atoms: _267  and  _268
REMARK  114  A    between atoms: _277  and  _279
REMARK  115  A    between atoms: _279  and  _280
REMARK  116  A    between atoms: _279  and  _282
REMARK  117  A    between atoms: _282  and  _283
REMARK  118  A    between atoms: _286  and  _288
REMARK  119  A    between atoms: _288  and  _289
REMARK  120  A    between atoms: _288  and  _291
REMARK  121  A    between atoms: _291  and  _292
REMARK  122  A    between atoms: _292  and  _293
REMARK  123  A    between atoms: _298  and  _300
REMARK  124  A    between atoms: _300  and  _301
REMARK  125  A    between atoms: _300  and  _303
REMARK  126  A    between atoms: _303  and  _304
REMARK  127  A    between atoms: _306  and  _308
REMARK  128  A    between atoms: _308  and  _309
REMARK  129  A    between atoms: _311  and  _313
REMARK  130  A    between atoms: _313  and  _314
REMARK  131  A    between atoms: _313  and  _316
REMARK  132  A    between atoms: _316  and  _317
REMARK  133  A    between atoms: _322  and  _324
REMARK  134  A    between atoms: _324  and  _325
REMARK  135  A    between atoms: _327  and  _329
REMARK  136  A    between atoms: _329  and  _330
REMARK  137  A    between atoms: _329  and  _332
REMARK  138  A    between atoms: _332  and  _333
REMARK  139  A    between atoms: _339  and  _341
REMARK  140  A    between atoms: _341  and  _342
REMARK  141  A    between atoms: _341  and  _344
REMARK  142  A    between atoms: _344  and  _345
REMARK  143  A    between atoms: _348  and  _350
REMARK  144  A    between atoms: _350  and  _351
REMARK  145  A    between atoms: _350  and  _353
REMARK  146  A    between atoms: _353  and  _354
REMARK  147  A    between atoms: _354  and  _355
REMARK  148  A    between atoms: _358  and  _360
REMARK  149  A    between atoms: _360  and  _361
REMARK  150  A    between atoms: _360  and  _363
REMARK  151  A    between atoms: _363  and  _364
REMARK  152  A    between atoms: _367  and  _369
REMARK  153  A    between atoms: _369  and  _370
REMARK  154  A    between atoms: _369  and  _372
REMARK  155  A    between atoms: _375  and  _377
REMARK  156  A    between atoms: _377  and  _378
REMARK  157  A    between atoms: _377  and  _380
REMARK  158  A    between atoms: _380  and  _381
REMARK  159  A    between atoms: _384  and  _386
REMARK  160  A    between atoms: _386  and  _387
REMARK  161  A    between atoms: _386  and  _389
REMARK  162  A    between atoms: _389  and  _390
REMARK  163  A    between atoms: _395  and  _397
REMARK  164  A    between atoms: _397  and  _398
REMARK  165  A    between atoms: _400  and  _402
REMARK  166  A    between atoms: _402  and  _403
REMARK  167  A    between atoms: _402  and  _405
REMARK  168  A    between atoms: _405  and  _406
REMARK  169  A    between atoms: _406  and  _407
REMARK  170  A    between atoms: _409  and  _411
REMARK  171  A    between atoms: _411  and  _412
REMARK  172  A    between atoms: _411  and  _414
REMARK  173  A    between atoms: _417  and  _419
REMARK  174  A    between atoms: _419  and  _420
REMARK  175  A    between atoms: _419  and  _422
REMARK  176  A    between atoms: _422  and  _423
REMARK  177  A    between atoms: _425  and  _427
REMARK  178  A    between atoms: _427  and  _428
REMARK  179  A    between atoms: _427  and  _430
REMARK  180  A    between atoms: _430  and  _431
REMARK  181  A    between atoms: _433  and  _435
REMARK  182  A    between atoms: _435  and  _436
REMARK  183  A    between atoms: _435  and  _438
REMARK  184  A    between atoms: _438  and  _439
REMARK  185  A    between atoms: _439  and  _440
REMARK  186  A    between atoms: _445  and  _447
REMARK  187  A    between atoms: _447  and  _448
REMARK  188  A    between atoms: _451  and  _453
REMARK  189  A    between atoms: _453  and  _454
REMARK  190  A    between atoms: _453  and  _456
REMARK  191  A    between atoms: _456  and  _457
REMARK  192  A    between atoms: _457  and  _458
REMARK  193  A    between atoms: _460  and  _462
REMARK  194  A    between atoms: _462  and  _463
REMARK  195  A    between atoms: _462  and  _465
REMARK  196  A    between atoms: _465  and  _466
REMARK  197  A    between atoms: _471  and  _472
REMARK  198  A    between atoms: _474  and  _476
REMARK  199  A    between atoms: _476  and  _477
REMARK  200  A    between atoms: _476  and  _479
REMARK  201  A    between atoms: _479  and  _480
REMARK  202  A    between atoms: _483  and  _485
REMARK  203  A    between atoms: _485  and  _486
REMARK  204  A    between atoms: _485  and  _488
REMARK  205  A    between atoms: _488  and  _489
REMARK  206  A    between atoms: _491  and  _493
REMARK  207  A    between atoms: _493  and  _494
REMARK  208  A    between atoms: _493  and  _496
REMARK  209  A    between atoms: _496  and  _497
REMARK  210  A    between atoms: _500  and  _502
REMARK  211  A    between atoms: _502  and  _503
REMARK  212  A    between atoms: _502  and  _505
REMARK  213  A    between atoms: _505  and  _506
REMARK  214  A    between atoms: _506  and  _507
REMARK  215  A    between atoms: _509  and  _511
REMARK  216  A    between atoms: _511  and  _512
REMARK  217  A    between atoms: _511  and  _514
REMARK  218  A    between atoms: _514  and  _515
REMARK  219  A    between atoms: _520  and  _521
REMARK  220  A    between atoms: _523  and  _525
REMARK  221  A    between atoms: _525  and  _526
REMARK  222  A    between atoms: _525  and  _528
REMARK  223  A    between atoms: _528  and  _529
REMARK  224  A    between atoms: _529  and  _530
REMARK  225  A    between atoms: _530  and  _531
REMARK  226  A    between atoms: _540  and  _542
REMARK  227  A    between atoms: _542  and  _543
REMARK  228  A    between atoms: _542  and  _545
REMARK  229  A    between atoms: _545  and  _546
REMARK  230  A    between atoms: _548  and  _550
REMARK  231  A    between atoms: _550  and  _551
REMARK  232  A    between atoms: _550  and  _553
REMARK  233  A    between atoms: _553  and  _554
REMARK  234  A    between atoms: _559  and  _560
REMARK  235  A    between atoms: _562  and  _564
REMARK  236  A    between atoms: _564  and  _565
REMARK  237  A    between atoms: _568  and  _570
REMARK  238  A    between atoms: _570  and  _571
REMARK  239  A    between atoms: _574  and  _576
REMARK  240  A    between atoms: _576  and  _577
REMARK  241  A    between atoms: _576  and  _579
REMARK  242  A    between atoms: _579  and  _580
REMARK  243  A    between atoms: _580  and  _581
REMARK  244  A    between atoms: _581  and  _582
REMARK  245  A    between atoms: _591  and  _593
REMARK  246  A    between atoms: _593  and  _594
REMARK  247  A    between atoms: _593  and  _596
REMARK  248  A    between atoms: _599  and  _601
REMARK  249  A    between atoms: _601  and  _602
REMARK  250  A    between atoms: _604  and  _606
REMARK  251  A    between atoms: _606  and  _607
REMARK  252  A    between atoms: _606  and  _609
REMARK  253  A    between atoms: _609  and  _610
REMARK  254  A    between atoms: _613  and  _615
REMARK  255  A    between atoms: _615  and  _616
REMARK  256  A    between atoms: _619  and  _621
REMARK  257  A    between atoms: _621  and  _622
REMARK  258  A    between atoms: _621  and  _624
REMARK  259  A    between atoms: _624  and  _625
REMARK  260  A    between atoms: _628  and  _630
REMARK  261  A    between atoms: _630  and  _631
REMARK  262  A    between atoms: _630  and  _633
REMARK  263  A    between atoms: _633  and  _634
REMARK  264  A    between atoms: _639  and  _640
REMARK  265  A    between atoms: _642  and  _644
REMARK  266  A    between atoms: _644  and  _645
REMARK  267  A    between atoms: _644  and  _647
REMARK  268  A    between atoms: _647  and  _648
REMARK  269  A    between atoms: _648  and  _649
REMARK  270  A    between atoms: _651  and  _653
REMARK  271  A    between atoms: _653  and  _654
REMARK  272  A    between atoms: _653  and  _656
REMARK  273  A    between atoms: _656  and  _657
REMARK  274  A    between atoms: _657  and  _658
REMARK  275  A    between atoms: _661  and  _663
REMARK  276  A    between atoms: _663  and  _664
REMARK  277  A    between atoms: _663  and  _666
REMARK  278  A    between atoms: _666  and  _667
REMARK  279  A    between atoms: _673  and  _675
REMARK  280  A    between atoms: _675  and  _676
REMARK  281  A    between atoms: _675  and  _678
REMARK  282  A    between atoms: _678  and  _679
REMARK  283  A    between atoms: _684  and  _686
REMARK  284  A    between atoms: _686  and  _687
REMARK  285  A    between atoms: _686  and  _689
REMARK  286  A    between atoms: _689  and  _690
REMARK  287  A    between atoms: _700  and  _702
REMARK  288  A    between atoms: _702  and  _703
REMARK  289  A    between atoms: _702  and  _705
REMARK  290  A    between atoms: _708  and  _710
REMARK  291  A    between atoms: _710  and  _711
REMARK  292  A    between atoms: _710  and  _713
REMARK  293  A    between atoms: _713  and  _714
REMARK  294  A    between atoms: _717  and  _719
REMARK  295  A    between atoms: _719  and  _720
REMARK  296  A    between atoms: _719  and  _722
REMARK  297  A    between atoms: _722  and  _723
REMARK  298  A    between atoms: _723  and  _724
REMARK  299  A    between atoms: _726  and  _728
REMARK  300  A    between atoms: _728  and  _729
REMARK  301  A    between atoms: _728  and  _731
REMARK  302  A    between atoms: _731  and  _732
REMARK  303  A    between atoms: _735  and  _737
REMARK  304  A    between atoms: _737  and  _738
REMARK  305  A    between atoms: _737  and  _740
REMARK  306  A    between atoms: _740  and  _741
REMARK  307  A    between atoms: _744  and  _746
REMARK  308  A    between atoms: _746  and  _747
REMARK  309  A    between atoms: _746  and  _749
REMARK  310  A    between atoms: _749  and  _750
REMARK  311  A    between atoms: _753  and  _755
REMARK  312  A    between atoms: _755  and  _756
REMARK  313  A    between atoms: _755  and  _758
REMARK  314  A    between atoms: _758  and  _759
REMARK  315  A    between atoms: _762  and  _764
REMARK  316  A    between atoms: _764  and  _765
REMARK  317  A    between atoms: _767  and  _769
REMARK  318  A    between atoms: _769  and  _770
REMARK  319  A    between atoms: _769  and  _772
REMARK  320  A    between atoms: _772  and  _773
REMARK  321  A    between atoms: _775  and  _777
REMARK  322  A    between atoms: _777  and  _778
REMARK  323  A    between atoms: _777  and  _780
REMARK  324  A    between atoms: _780  and  _781
REMARK  325  A    between atoms: _791  and  _793
REMARK  326  A    between atoms: _793  and  _794
REMARK  327  A    between atoms: _793  and  _796
REMARK  328  A    between atoms: _796  and  _797
REMARK  329  A    between atoms: _799  and  _801
REMARK  330  A    between atoms: _801  and  _802
REMARK  331  A    between atoms: _801  and  _804
REMARK  332  A    between atoms: _804  and  _805
REMARK  333  A    between atoms: _808  and  _810
REMARK  334  A    between atoms: _810  and  _811
REMARK  335  A    between atoms: _814  and  _816
REMARK  336  A    between atoms: _816  and  _817
REMARK  337  A    between atoms: _816  and  _819
REMARK  338  A    between atoms: _819  and  _820
REMARK  339  A    between atoms: _822  and  _824
REMARK  340  A    between atoms: _824  and  _825
REMARK  341  A    between atoms: _824  and  _827
REMARK  342  A    between atoms: _827  and  _828
REMARK  343  A    between atoms: _828  and  _829
REMARK  344  A    between atoms: _832  and  _834
REMARK  345  A    between atoms: _834  and  _835
REMARK  346  A    between atoms: _834  and  _837
REMARK  347  A    between atoms: _837  and  _838
REMARK  348  A    between atoms: _840  and  _842
REMARK  349  A    between atoms: _842  and  _843
REMARK  350  A    between atoms: _842  and  _845
REMARK  351  A    between atoms: _845  and  _846
REMARK  352  A    between atoms: _846  and  _847
REMARK  353  A    between atoms: _852  and  _854
REMARK  354  A    between atoms: _854  and  _855
REMARK  355  A    between atoms: _854  and  _857
REMARK  356  A    between atoms: _857  and  _858
REMARK  357  A    between atoms: _858  and  _859
REMARK  358  A    between atoms: _864  and  _866
REMARK  359  A    between atoms: _866  and  _867
REMARK  360  A    between atoms: _866  and  _869
REMARK  361  A    between atoms: _869  and  _870
REMARK  362  A    between atoms: _873  and  _875
REMARK  363  A    between atoms: _875  and  _876
REMARK  364  A    between atoms: _875  and  _878
REMARK  365  A    between atoms: _878  and  _879
REMARK  366  A    between atoms: _882  and  _884
REMARK  367  A    between atoms: _884  and  _885
REMARK  368  A    between atoms: _884  and  _887
REMARK  369  A    between atoms: _887  and  _888
REMARK  370  A    between atoms: _895  and  _896
REMARK  371  A    between atoms: _901  and  _903
REMARK  372  A    between atoms: _903  and  _904
REMARK  373  A    between atoms: _903  and  _906
REMARK  374  A    between atoms: _906  and  _907
REMARK  375  A    between atoms: _912  and  _913
REMARK  376  A    between atoms: _915  and  _917
REMARK  377  A    between atoms: _917  and  _918
REMARK  378  A    between atoms: _917  and  _920
REMARK  379  A    between atoms: _920  and  _921
REMARK  380  A    between atoms: _926  and  _928
REMARK  381  A    between atoms: _928  and  _929
REMARK  382  A    between atoms: _928  and  _931
REMARK  383  A    between atoms: _931  and  _932
REMARK  384  A    between atoms: _938  and  _940
REMARK  385  A    between atoms: _940  and  _941
REMARK  386  A    between atoms: _940  and  _943
REMARK  387  A    between atoms: _943  and  _944
REMARK  388  A    between atoms: _947  and  _949
REMARK  389  A    between atoms: _949  and  _950
REMARK  390  A    between atoms: _949  and  _952
REMARK  391  A    between atoms: _952  and  _953
REMARK  392  A    between atoms: _958  and  _960
REMARK  393  A    between atoms: _960  and  _961
REMARK  394  A    between atoms: _960  and  _963
REMARK  395  A    between atoms: _963  and  _964
REMARK  396  A    between atoms: _970  and  _972
REMARK  397  A    between atoms: _972  and  _973
REMARK  398  A    between atoms: _972  and  _975
REMARK  399  A    between atoms: _975  and  _976
REMARK  400  A    between atoms: _976  and  _977
REMARK  401  A    between atoms: _979  and  _981
REMARK  402  A    between atoms: _981  and  _982
REMARK  403  A    between atoms: _981  and  _984
REMARK  404  A    between atoms: _984  and  _985
REMARK  405  A    between atoms: _988  and  _990
REMARK  406  A    between atoms: _990  and  _991
REMARK  407  A    between atoms: _990  and  _993
REMARK  408  A    between atoms: _993  and  _994
REMARK  409  A    between atoms: _999  and  _1001
REMARK  410  A    between atoms: _1001  and  _1002
REMARK  411  A    between atoms: _1001  and  _1004
REMARK  412  A    between atoms: _1004  and  _1005
REMARK  413  A    between atoms: _1010  and  _1011
REMARK                            x       y       z     vdW  Elec       q    Type
REMARK                         _______ _______ _______ _____ _____    ______ ____
ROOT
ATOM      1  CA  ILE A   1     -10.786 -32.261  15.894  0.00  0.00    +0.133 C 
ENDROOT
BRANCH   1   2
ATOM      2  N   ILE A   1      -9.848 -33.034  16.714  0.00  0.00    -0.239 NA
ATOM      3  H   ILE A   1      -9.629 -32.687  17.670  0.00  0.00    +0.142 HD
ENDBRANCH   1   2
BRANCH   1   4
ATOM      4  CB  ILE A   1     -11.379 -31.070  16.704  0.00  0.00    +0.023 C 
ATOM      5  CG2 ILE A   1     -12.208 -30.144  15.813  0.00  0.00    +0.002 C 
BRANCH   4   6
ATOM      6  CG1 ILE A   1     -12.230 -31.596  17.868  0.00  0.00    +0.002 C 
ATOM      7  CD1 ILE A   1     -12.487 -30.584  18.975  0.00  0.00    +0.000 C 
ENDBRANCH   4   6
ENDBRANCH   1   4
BRANCH   1   8
ATOM      8  C   ILE A   1     -10.147 -31.789  14.581  0.00  0.00    +0.224 C 
ATOM      9  O   ILE A   1     -10.778 -31.847  13.523  0.00  0.00    -0.287 OA
ENDBRANCH   1   8
TORSDOF 4
REMARK  Name = ../refined-set-2016/3drg/3drg_pocket.pdb
REMARK  413 active torsions:
REMARK  status: ('A' for Active; 'I' for Inactive)
REMARK    1  A    between atoms: _1  and  _3
REMARK    2  A    between atoms: _3  and  _4
REMARK    3  A    between atoms: _3  and  _6
REMARK    4  A    between atoms: _6  and  _7
REMARK    5  A    between atoms: _12  and  _13
REMARK    6  A    between atoms: _15  and  _17
REMARK    7  A    between atoms: _17  and  _18
REMARK    8  A    between atoms: _17  and  _20
REMARK    9  A    between atoms: _20  and  _21
REMARK   10  A    between atoms: _21  and  _22
REMARK   11  A    between atoms: _27  and  _29
REMARK   12  A    between atoms: _29  and  _30
REMARK   13  A    between atoms: _29  and  _32
REMARK   14  A    between atoms: _32  and  _33
REMARK   15  A    between atoms: _35  and  _37
REMARK   16  A    between atoms: _37  and  _38
REMARK   17  A    between atoms: _37  and  _40
REMARK   18  A    between atoms: _40  and  _41
REMARK   19  A    between atoms: _44  and  _46
REMARK   20  A    between atoms: _46  and  _47
REMARK   21  A    between atoms: _46  and  _49
REMARK   22  A    between atoms: _49  and  _50
REMARK   23  A    between atoms: _52  and  _54
REMARK   24  A    between atoms: _54  and  _55
REMARK   25  A    between atoms: _54  and  _57
REMARK   26  A    between atoms: _57  and  _58
REMARK   27  A    between atoms: _61  and  _63
REMARK   28  A    between atoms: _63  and  _64
REMARK   29  A    between atoms: _63  and  _66
REMARK   30  A    between atoms: _66  and  _67
REMARK   31  A    between atoms: _69  and  _71
REMARK   32  A    between atoms: _71  and  _72
REMARK   33  A    between atoms: _74  and  _76
REMARK   34  A    between atoms: _76  and  _77
REMARK   35  A    between atoms: _76  and  _79
REMARK   36  A    between atoms: _79  and  _80
REMARK   37  A    between atoms: _82  and  _84
REMARK   38  A    between atoms: _84  and  _85
REMARK   39  A    between atoms: _84  and  _87
REMARK   40  A    between atoms: _87  and  _88
REMARK   41  A    between atoms: _93  and  _95
REMARK   42  A    between atoms: _95  and  _96
REMARK   43  A    between atoms: _95  and  _98
REMARK   44  A    between atoms: _98  and  _99
REMARK   45  A    between atoms: _102  and  _104
REMARK   46  A    between atoms: _104  and  _105
REMARK   47  A    between atoms: _108  and  _110
REMARK   48  A    between atoms: _110  and  _111
REMARK   49  A    between atoms: _110  and  _113
REMARK   50  A    between atoms: _113  and  _114
REMARK   51  A    between atoms: _117  and  _119
REMARK   52  A    between atoms: _119  and  _120
REMARK   53  A    between atoms: _119  and  _122
REMARK   54  A    between atoms: _122  and  _123
REMARK   55  A    between atoms: _129  and  _131
REMARK   56  A    between atoms: _131  and  _132
REMARK   57  A    between atoms: _135  and  _137
REMARK   58  A    between atoms: _137  and  _138
REMARK   59  A    between atoms: _137  and  _140
REMARK   60  A    between atoms: _140  and  _141
REMARK   61  A    between atoms: _144  and  _146
REMARK   62  A    between atoms: _146  and  _147
REMARK   63  A    between atoms: _146  and  _149
REMARK   64  A    between atoms: _149  and  _150
REMARK   65  A    between atoms: _152  and  _154
REMARK   66  A    between atoms: _154  and  _155
REMARK   67  A    between atoms: _157  and  _159
REMARK   68  A    between atoms: _159  and  _160
REMARK   69  A    between atoms: _162  and  _164
REMARK   70  A    between atoms: _164  and  _165
REMARK   71  A    between atoms: _164  and  _167
REMARK   72  A    between atoms: _167  and  _168
REMARK   73  A    between atoms: _168  and  _169
REMARK   74  A    between atoms: _174  and  _176
REMARK   75  A    between atoms: _176  and  _177
REMARK   76  A    between atoms: _176  and  _179
REMARK   77  A    between atoms: _179  and  _180
REMARK   78  A    between atoms: _183  and  _185
REMARK   79  A    between atoms: _185  and  _186
REMARK   80  A    between atoms: _188  and  _190
REMARK   81  A    between atoms: _190  and  _191
REMARK   82  A    between atoms: _190  and  _193
REMARK   83  A    between atoms: _193  and  _194
REMARK   84  A    between atoms: _197  and  _199
REMARK   85  A    between atoms: _199  and  _200
REMARK   86  A    between atoms: _199  and  _202
REMARK   87  A    between atoms: _202  and  _203
REMARK   88  A    between atoms: _209  and  _211
REMARK   89  A    between atoms: _211  and  _212
REMARK   90  A    between atoms: _211  and  _214
REMARK   91  A    between atoms: _214  and  _215
REMARK   92  A    between atoms: _218  and  _220
REMARK   93  A    between atoms: _220  and  _221
REMARK   94  A    between atoms: _220  and  _223
REMARK   95  A    between atoms: _223  and  _224
REMARK   96  A    between atoms: _230  and  _232
REMARK   97  A    between atoms: _232  and  _233
REMARK   98  A    between atoms: _232  and  _235
REMARK   99  A    between atoms: _235  and  _236
REMARK  100  A    between atoms: _242  and  _244
REMARK  101  A    between atoms: _244  and  _245
REMARK  102  A    between atoms: _244  and  _247
REMARK  103  A    between atoms: _247  and  _248
REMARK  104  A    between atoms: _251  and  _253
REMARK  105  A    between atoms: _253  and  _254
REMARK  106  A    between atoms: _253  and  _256
REMARK  107  A    between atoms: _256  and  _257
REMARK  108  A    between atoms: _260  and  _262
REMARK  109  A    between atoms: _262  and  _263
REMARK  110  A    between atoms: _262  and  _265
REMARK  111  A    between atoms: _265  and  _266
REMARK  112  A    between atoms: _266  and  _267
REMARK  113  A    between atoms: _267  and  _268
REMARK  114  A    between atoms: _277  and  _279
REMARK  115  A    between atoms: _279  and  _280
REMARK  116  A    between atoms: _279  and  _282
REMARK  117  A    between atoms: _282  and  _283
REMARK  118  A    between atoms: _286  and  _288
REMARK  119  A    between atoms: _288  and  _289
REMARK  120  A    between atoms: _288  and  _291
REMARK  121  A    between atoms: _291  and  _292
REMARK  122  A    between atoms: _292  and  _293
REMARK  123  A    between atoms: _298  and  _300
REMARK  124  A    between atoms: _300  and  _301
REMARK  125  A    between atoms: _300  and  _303
REMARK  126  A    between atoms: _303  and  _304
REMARK  127  A    between atoms: _306  and  _308
REMARK  128  A    between atoms: _308  and  _309
REMARK  129  A    between atoms: _311  and  _313
REMARK  130  A    between atoms: _313  and  _314
REMARK  131  A    between atoms: _313  and  _316
REMARK  132  A    between atoms: _316  and  _317
REMARK  133  A    between atoms: _322  and  _324
REMARK  134  A    between atoms: _324  and  _325
REMARK  135  A    between atoms: _327  and  _329
REMARK  136  A    between atoms: _329  and  _330
REMARK  137  A    between atoms: _329  and  _332
REMARK  138  A    between atoms: _332  and  _333
REMARK  139  A    between atoms: _339  and  _341
REMARK  140  A    between atoms: _341  and  _342
REMARK  141  A    between atoms: _341  and  _344
REMARK  142  A    between atoms: _344  and  _345
REMARK  143  A    between atoms: _348  and  _350
REMARK  144  A    between atoms: _350  and  _351
REMARK  145  A    between atoms: _350  and  _353
REMARK  146  A    between atoms: _353  and  _354
REMARK  147  A    between atoms: _354  and  _355
REMARK  148  A    between atoms: _358  and  _360
REMARK  149  A    between atoms: _360  and  _361
REMARK  150  A    between atoms: _360  and  _363
REMARK  151  A    between atoms: _363  and  _364
REMARK  152  A    between atoms: _367  and  _369
REMARK  153  A    between atoms: _369  and  _370
REMARK  154  A    between atoms: _369  and  _372
REMARK  155  A    between atoms: _375  and  _377
REMARK  156  A    between atoms: _377  and  _378
REMARK  157  A    between atoms: _377  and  _380
REMARK  158  A    between atoms: _380  and  _381
REMARK  159  A    between atoms: _384  and  _386
REMARK  160  A    between atoms: _386  and  _387
REMARK  161  A    between atoms: _386  and  _389
REMARK  162  A    between atoms: _389  and  _390
REMARK  163  A    between atoms: _395  and  _397
REMARK  164  A    between atoms: _397  and  _398
REMARK  165  A    between atoms: _400  and  _402
REMARK  166  A    between atoms: _402  and  _403
REMARK  167  A    between atoms: _402  and  _405
REMARK  168  A    between atoms: _405  and  _406
REMARK  169  A    between atoms: _406  and  _407
REMARK  170  A    between atoms: _409  and  _411
REMARK  171  A    between atoms: _411  and  _412
REMARK  172  A    between atoms: _411  and  _414
REMARK  173  A    between atoms: _417  and  _419
REMARK  174  A    between atoms: _419  and  _420
REMARK  175  A    between atoms: _419  and  _422
REMARK  176  A    between atoms: _422  and  _423
REMARK  177  A    between atoms: _425  and  _427
REMARK  178  A    between atoms: _427  and  _428
REMARK  179  A    between atoms: _427  and  _430
REMARK  180  A    between atoms: _430  and  _431
REMARK  181  A    between atoms: _433  and  _435
REMARK  182  A    between atoms: _435  and  _436
REMARK  183  A    between atoms: _435  and  _438
REMARK  184  A    between atoms: _438  and  _439
REMARK  185  A    between atoms: _439  and  _440
REMARK  186  A    between atoms: _445  and  _447
REMARK  187  A    between atoms: _447  and  _448
REMARK  188  A    between atoms: _451  and  _453
REMARK  189  A    between atoms: _453  and  _454
REMARK  190  A    between atoms: _453  and  _456
REMARK  191  A    between atoms: _456  and  _457
REMARK  192  A    between atoms: _457  and  _458
REMARK  193  A    between atoms: _460  and  _462
REMARK  194  A    between atoms: _462  and  _463
REMARK  195  A    between atoms: _462  and  _465
REMARK  196  A    between atoms: _465  and  _466
REMARK  197  A    between atoms: _471  and  _472
REMARK  198  A    between atoms: _474  and  _476
REMARK  199  A    between atoms: _476  and  _477
REMARK  200  A    between atoms: _476  and  _479
REMARK  201  A    between atoms: _479  and  _480
REMARK  202  A    between atoms: _483  and  _485
REMARK  203  A    between atoms: _485  and  _486
REMARK  204  A    between atoms: _485  and  _488
REMARK  205  A    between atoms: _488  and  _489
REMARK  206  A    between atoms: _491  and  _493
REMARK  207  A    between atoms: _493  and  _494
REMARK  208  A    between atoms: _493  and  _496
REMARK  209  A    between atoms: _496  and  _497
REMARK  210  A    between atoms: _500  and  _502
REMARK  211  A    between atoms: _502  and  _503
REMARK  212  A    between atoms: _502  and  _505
REMARK  213  A    between atoms: _505  and  _506
REMARK  214  A    between atoms: _506  and  _507
REMARK  215  A    between atoms: _509  and  _511
REMARK  216  A    between atoms: _511  and  _512
REMARK  217  A    between atoms: _511  and  _514
REMARK  218  A    between atoms: _514  and  _515
REMARK  219  A    between atoms: _520  and  _521
REMARK  220  A    between atoms: _523  and  _525
REMARK  221  A    between atoms: _525  and  _526
REMARK  222  A    between atoms: _525  and  _528
REMARK  223  A    between atoms: _528  and  _529
REMARK  224  A    between atoms: _529  and  _530
REMARK  225  A    between atoms: _530  and  _531
REMARK  226  A    between atoms: _540  and  _542
REMARK  227  A    between atoms: _542  and  _543
REMARK  228  A    between atoms: _542  and  _545
REMARK  229  A    between atoms: _545  and  _546
REMARK  230  A    between atoms: _548  and  _550
REMARK  231  A    between atoms: _550  and  _551
REMARK  232  A    between atoms: _550  and  _553
REMARK  233  A    between atoms: _553  and  _554
REMARK  234  A    between atoms: _559  and  _560
REMARK  235  A    between atoms: _562  and  _564
REMARK  236  A    between atoms: _564  and  _565
REMARK  237  A    between atoms: _568  and  _570
REMARK  238  A    between atoms: _570  and  _571
REMARK  239  A    between atoms: _574  and  _576
REMARK  240  A    between atoms: _576  and  _577
REMARK  241  A    between atoms: _576  and  _579
REMARK  242  A    between atoms: _579  and  _580
REMARK  243  A    between atoms: _580  and  _581
REMARK  244  A    between atoms: _581  and  _582
REMARK  245  A    between atoms: _591  and  _593
REMARK  246  A    between atoms: _593  and  _594
REMARK  247  A    between atoms: _593  and  _596
REMARK  248  A    between atoms: _599  and  _601
REMARK  249  A    between atoms: _601  and  _602
REMARK  250  A    between atoms: _604  and  _606
REMARK  251  A    between atoms: _606  and  _607
REMARK  252  A    between atoms: _606  and  _609
REMARK  253  A    between atoms: _609  and  _610
REMARK  254  A    between atoms: _613  and  _615
REMARK  255  A    between atoms: _615  and  _616
REMARK  256  A    between atoms: _619  and  _621
REMARK  257  A    between atoms: _621  and  _622
REMARK  258  A    between atoms: _621  and  _624
REMARK  259  A    between atoms: _624  and  _625
REMARK  260  A    between atoms: _628  and  _630
REMARK  261  A    between atoms: _630  and  _631
REMARK  262  A    between atoms: _630  and  _633
REMARK  263  A    between atoms: _633  and  _634
REMARK  264  A    between atoms: _639  and  _640
REMARK  265  A    between atoms: _642  and  _644
REMARK  266  A    between atoms: _644  and  _645
REMARK  267  A    between atoms: _644  and  _647
REMARK  268  A    between atoms: _647  and  _648
REMARK  269  A    between atoms: _648  and  _649
REMARK  270  A    between atoms: _651  and  _653
REMARK  271  A    between atoms: _653  and  _654
REMARK  272  A    between atoms: _653  and  _656
REMARK  273  A    between atoms: _656  and  _657
REMARK  274  A    between atoms: _657  and  _658
REMARK  275  A    between atoms: _661  and  _663
REMARK  276  A    between atoms: _663  and  _664
REMARK  277  A    between atoms: _663  and  _666
REMARK  278  A    between atoms: _666  and  _667
REMARK  279  A    between atoms: _673  and  _675
REMARK  280  A    between atoms: _675  and  _676
REMARK  281  A    between atoms: _675  and  _678
REMARK  282  A    between atoms: _678  and  _679
REMARK  283  A    between atoms: _684  and  _686
REMARK  284  A    between atoms: _686  and  _687
REMARK  285  A    between atoms: _686  and  _689
REMARK  286  A    between atoms: _689  and  _690
REMARK  287  A    between atoms: _700  and  _702
REMARK  288  A    between atoms: _702  and  _703
REMARK  289  A    between atoms: _702  and  _705
REMARK  290  A    between atoms: _708  and  _710
REMARK  291  A    between atoms: _710  and  _711
REMARK  292  A    between atoms: _710  and  _713
REMARK  293  A    between atoms: _713  and  _714
REMARK  294  A    between atoms: _717  and  _719
REMARK  295  A    between atoms: _719  and  _720
REMARK  296  A    between atoms: _719  and  _722
REMARK  297  A    between atoms: _722  and  _723
REMARK  298  A    between atoms: _723  and  _724
REMARK  299  A    between atoms: _726  and  _728
REMARK  300  A    between atoms: _728  and  _729
REMARK  301  A    between atoms: _728  and  _731
REMARK  302  A    between atoms: _731  and  _732
REMARK  303  A    between atoms: _735  and  _737
REMARK  304  A    between atoms: _737  and  _738
REMARK  305  A    between atoms: _737  and  _740
REMARK  306  A    between atoms: _740  and  _741
REMARK  307  A    between atoms: _744  and  _746
REMARK  308  A    between atoms: _746  and  _747
REMARK  309  A    between atoms: _746  and  _749
REMARK  310  A    between atoms: _749  and  _750
REMARK  311  A    between atoms: _753  and  _755
REMARK  312  A    between atoms: _755  and  _756
REMARK  313  A    between atoms: _755  and  _758
REMARK  314  A    between atoms: _758  and  _759
REMARK  315  A    between atoms: _762  and  _764
REMARK  316  A    between atoms: _764  and  _765
REMARK  317  A    between atoms: _767  and  _769
REMARK  318  A    between atoms: _769  and  _770
REMARK  319  A    between atoms: _769  and  _772
REMARK  320  A    between atoms: _772  and  _773
REMARK  321  A    between atoms: _775  and  _777
REMARK  322  A    between atoms: _777  and  _778
REMARK  323  A    between atoms: _777  and  _780
REMARK  324  A    between atoms: _780  and  _781
REMARK  325  A    between atoms: _791  and  _793
REMARK  326  A    between atoms: _793  and  _794
REMARK  327  A    between atoms: _793  and  _796
REMARK  328  A    between atoms: _796  and  _797
REMARK  329  A    between atoms: _799  and  _801
REMARK  330  A    between atoms: _801  and  _802
REMARK  331  A    between atoms: _801  and  _804
REMARK  332  A    between atoms: _804  and  _805
REMARK  333  A    between atoms: _808  and  _810
REMARK  334  A    between atoms: _810  and  _811
REMARK  335  A    between atoms: _814  and  _816
REMARK  336  A    between atoms: _816  and  _817
REMARK  337  A    between atoms: _816  and  _819
REMARK  338  A    between atoms: _819  and  _820
REMARK  339  A    between atoms: _822  and  _824
REMARK  340  A    between atoms: _824  and  _825
REMARK  341  A    between atoms: _824  and  _827
REMARK  342  A    between atoms: _827  and  _828
REMARK  343  A    between atoms: _828  and  _829
REMARK  344  A    between atoms: _832  and  _834
REMARK  345  A    between atoms: _834  and  _835
REMARK  346  A    between atoms: _834  and  _837
REMARK  347  A    between atoms: _837  and  _838
REMARK  348  A    between atoms: _840  and  _842
REMARK  349  A    between atoms: _842  and  _843
REMARK  350  A    between atoms: _842  and  _845
REMARK  351  A    between atoms: _845  and  _846
REMARK  352  A    between atoms: _846  and  _847
REMARK  353  A    between atoms: _852  and  _854
REMARK  354  A    between atoms: _854  and  _855
REMARK  355  A    between atoms: _854  and  _857
REMARK  356  A    between atoms: _857  and  _858
REMARK  357  A    between atoms: _858  and  _859
REMARK  358  A    between atoms: _864  and  _866
REMARK  359  A    between atoms: _866  and  _867
REMARK  360  A    between atoms: _866  and  _869
REMARK  361  A    between atoms: _869  and  _870
REMARK  362  A    between atoms: _873  and  _875
REMARK  363  A    between atoms: _875  and  _876
REMARK  364  A    between atoms: _875  and  _878
REMARK  365  A    between atoms: _878  and  _879
REMARK  366  A    between atoms: _882  and  _884
REMARK  367  A    between atoms: _884  and  _885
REMARK  368  A    between atoms: _884  and  _887
REMARK  369  A    between atoms: _887  and  _888
REMARK  370  A    between atoms: _895  and  _896
REMARK  371  A    between atoms: _901  and  _903
REMARK  372  A    between atoms: _903  and  _904
REMARK  373  A    between atoms: _903  and  _906
REMARK  374  A    between atoms: _906  and  _907
REMARK  375  A    between atoms: _912  and  _913
REMARK  376  A    between atoms: _915  and  _917
REMARK  377  A    between atoms: _917  and  _918
REMARK  378  A    between atoms: _917  and  _920
REMARK  379  A    between atoms: _920  and  _921
REMARK  380  A    between atoms: _926  and  _928
REMARK  381  A    between atoms: _928  and  _929
REMARK  382  A    between atoms: _928  and  _931
REMARK  383  A    between atoms: _931  and  _932
REMARK  384  A    between atoms: _938  and  _940
REMARK  385  A    between atoms: _940  and  _941
REMARK  386  A    between atoms: _940  and  _943
REMARK  387  A    between atoms: _943  and  _944
REMARK  388  A    between atoms: _947  and  _949
REMARK  389  A    between atoms: _949  and  _950
REMARK  390  A    between atoms: _949  and  _952
REMARK  391  A    between atoms: _952  and  _953
REMARK  392  A    between atoms: _958  and  _960
REMARK  393  A    between atoms: _960  and  _961
REMARK  394  A    between atoms: _960  and  _963
REMARK  395  A    between atoms: _963  and  _964
REMARK  396  A    between atoms: _970  and  _972
REMARK  397  A    between atoms: _972  and  _973
REMARK  398  A    between atoms: _972  and  _975
REMARK  399  A    between atoms: _975  and  _976
REMARK  400  A    between atoms: _976  and  _977
REMARK  401  A    between atoms: _979  and  _981
REMARK  402  A    between atoms: _981  and  _982
REMARK  403  A    between atoms: _981  and  _984
REMARK  404  A    between atoms: _984  and  _985
REMARK  405  A    between atoms: _988  and  _990
REMARK  406  A    between atoms: _990  and  _991
REMARK  407  A    between atoms: _990  and  _993
REMARK  408  A    between atoms: _993  and  _994
REMARK  409  A    between atoms: _999  and  _1001
REMARK  410  A    between atoms: _1001  and  _1002
REMARK  411  A    between atoms: _1001  and  _1004
REMARK  412  A    between atoms: _1004  and  _1005
REMARK  413  A    between atoms: _1010  and  _1011
REMARK                            x       y       z     vdW  Elec       q    Type
REMARK                         _______ _______ _______ _____ _____    ______ ____
ROOT
ATOM      1  CG  TYR A   1     -12.511 -30.227  10.706  0.00  0.00    -0.020 A 
ATOM      2  CD2 TYR A   1     -12.019 -29.250  11.571  0.00  0.00    -0.001 A 
ATOM      3  CE2 TYR A   1     -12.821 -28.694  12.562  0.00  0.00    +0.036 A 
ATOM      4  CZ  TYR A   1     -14.137 -29.111  12.689  0.00  0.00    +0.134 A 
ATOM      5  CE1 TYR A   1     -14.654 -30.074  11.837  0.00  0.00    +0.036 A 
ATOM      6  CD1 TYR A   1     -13.843 -30.621  10.847  0.00  0.00    -0.001 A 
ENDROOT
BRANCH   4   7
ATOM      7  OH  TYR A   1     -14.934 -28.563  13.670  0.00  0.00    -0.506 OA
ATOM      8  HH  TYR A   1     -15.837 -28.967  13.624  0.00  0.00    +0.292 HD
ENDBRANCH   4   7
BRANCH   1   9
ATOM      9  CB  TYR A   1     -11.628 -30.816   9.626  0.00  0.00    +0.051 C 
BRANCH   9  10
ATOM     10  CA  TYR A   1     -11.764 -32.329   9.416  0.00  0.00    +0.137 C 
BRANCH  10  11
ATOM     11  N   TYR A   1     -11.443 -33.073  10.638  0.00  0.00    -0.239 NA
ATOM     12  H   TYR A   1     -10.975 -32.574  11.422  0.00  0.00    +0.142 HD
ENDBRANCH  10  11
BRANCH  10  13
ATOM     13  C   TYR A   1     -10.902 -32.754   8.232  0.00  0.00    +0.224 C 
ATOM     14  O   TYR A   1     -11.374 -32.766   7.094  0.00  0.00    -0.287 OA
ENDBRANCH  10  13
ENDBRANCH   9  10
ENDBRANCH   1   9
TORSDOF 5
REMARK  Name = ../refined-set-2016/3drg/3drg_pocket.pdb
REMARK  413 active torsions:
REMARK  status: ('A' for Active; 'I' for Inactive)
REMARK    1  A    between atoms: _1  and  _3
REMARK    2  A    between atoms: _3  and  _4
REMARK    3  A    between atoms: _3  and  _6
REMARK    4  A    between atoms: _6  and  _7
REMARK    5  A    between atoms: _12  and  _13
REMARK    6  A    between atoms: _15  and  _17
REMARK    7  A    between atoms: _17  and  _18
REMARK    8  A    between atoms: _17  and  _20
REMARK    9  A    between atoms: _20  and  _21
REMARK   10  A    between atoms: _21  and  _22
REMARK   11  A    between atoms: _27  and  _29
REMARK   12  A    between atoms: _29  and  _30
REMARK   13  A    between atoms: _29  and  _32
REMARK   14  A    between atoms: _32  and  _33
REMARK   15  A    between atoms: _35  and  _37
REMARK   16  A    between atoms: _37  and  _38
REMARK   17  A    between atoms: _37  and  _40
REMARK   18  A    between atoms: _40  and  _41
REMARK   19  A    between atoms: _44  and  _46
REMARK   20  A    between atoms: _46  and  _47
REMARK   21  A    between atoms: _46  and  _49
REMARK   22  A    between atoms: _49  and  _50
REMARK   23  A    between atoms: _52  and  _54
REMARK   24  A    between atoms: _54  and  _55
REMARK   25  A    between atoms: _54  and  _57
REMARK   26  A    between atoms: _57  and  _58
REMARK   27  A    between atoms: _61  and  _63
REMARK   28  A    between atoms: _63  and  _64
REMARK   29  A    between atoms: _63  and  _66
REMARK   30  A    between atoms: _66  and  _67
REMARK   31  A    between atoms: _69  and  _71
REMARK   32  A    between atoms: _71  and  _72
REMARK   33  A    between atoms: _74  and  _76
REMARK   34  A    between atoms: _76  and  _77
REMARK   35  A    between atoms: _76  and  _79
REMARK   36  A    between atoms: _79  and  _80
REMARK   37  A    between atoms: _82  and  _84
REMARK   38  A    between atoms: _84  and  _85
REMARK   39  A    between atoms: _84  and  _87
REMARK   40  A    between atoms: _87  and  _88
REMARK   41  A    between atoms: _93  and  _95
REMARK   42  A    between atoms: _95  and  _96
REMARK   43  A    between atoms: _95  and  _98
REMARK   44  A    between atoms: _98  and  _99
REMARK   45  A    between atoms: _102  and  _104
REMARK   46  A    between atoms: _104  and  _105
REMARK   47  A    between atoms: _108  and  _110
REMARK   48  A    between atoms: _110  and  _111
REMARK   49  A    between atoms: _110  and  _113
REMARK   50  A    between atoms: _113  and  _114
REMARK   51  A    between atoms: _117  and  _119
REMARK   52  A    between atoms: _119  and  _120
REMARK   53  A    between atoms: _119  and  _122
REMARK   54  A    between atoms: _122  and  _123
REMARK   55  A    between atoms: _129  and  _131
REMARK   56  A    between atoms: _131  and  _132
REMARK   57  A    between atoms: _135  and  _137
REMARK   58  A    between atoms: _137  and  _138
REMARK   59  A    between atoms: _137  and  _140
REMARK   60  A    between atoms: _140  and  _141
REMARK   61  A    between atoms: _144  and  _146
REMARK   62  A    between atoms: _146  and  _147
REMARK   63  A    between atoms: _146  and  _149
REMARK   64  A    between atoms: _149  and  _150
REMARK   65  A    between atoms: _152  and  _154
REMARK   66  A    between atoms: _154  and  _155
REMARK   67  A    between atoms: _157  and  _159
REMARK   68  A    between atoms: _159  and  _160
REMARK   69  A    between atoms: _162  and  _164
REMARK   70  A    between atoms: _164  and  _165
REMARK   71  A    between atoms: _164  and  _167
REMARK   72  A    between atoms: _167  and  _168
REMARK   73  A    between atoms: _168  and  _169
REMARK   74  A    between atoms: _174  and  _176
REMARK   75  A    between atoms: _176  and  _177
REMARK   76  A    between atoms: _176  and  _179
REMARK   77  A    between atoms: _179  and  _180
REMARK   78  A    between atoms: _183  and  _185
REMARK   79  A    between atoms: _185  and  _186
REMARK   80  A    between atoms: _188  and  _190
REMARK   81  A    between atoms: _190  and  _191
REMARK   82  A    between atoms: _190  and  _193
REMARK   83  A    between atoms: _193  and  _194
REMARK   84  A    between atoms: _197  and  _199
REMARK   85  A    between atoms: _199  and  _200
REMARK   86  A    between atoms: _199  and  _202
REMARK   87  A    between atoms: _202  and  _203
REMARK   88  A    between atoms: _209  and  _211
REMARK   89  A    between atoms: _211  and  _212
REMARK   90  A    between atoms: _211  and  _214
REMARK   91  A    between atoms: _214  and  _215
REMARK   92  A    between atoms: _218  and  _220
REMARK   93  A    between atoms: _220  and  _221
REMARK   94  A    between atoms: _220  and  _223
REMARK   95  A    between atoms: _223  and  _224
REMARK   96  A    between atoms: _230  and  _232
REMARK   97  A    between atoms: _232  and  _233
REMARK   98  A    between atoms: _232  and  _235
REMARK   99  A    between atoms: _235  and  _236
REMARK  100  A    between atoms: _242  and  _244
REMARK  101  A    between atoms: _244  and  _245
REMARK  102  A    between atoms: _244  and  _247
REMARK  103  A    between atoms: _247  and  _248
REMARK  104  A    between atoms: _251  and  _253
REMARK  105  A    between atoms: _253  and  _254
REMARK  106  A    between atoms: _253  and  _256
REMARK  107  A    between atoms: _256  and  _257
REMARK  108  A    between atoms: _260  and  _262
REMARK  109  A    between atoms: _262  and  _263
REMARK  110  A    between atoms: _262  and  _265
REMARK  111  A    between atoms: _265  and  _266
REMARK  112  A    between atoms: _266  and  _267
REMARK  113  A    between atoms: _267  and  _268
REMARK  114  A    between atoms: _277  and  _279
REMARK  115  A    between atoms: _279  and  _280
REMARK  116  A    between atoms: _279  and  _282
REMARK  117  A    between atoms: _282  and  _283
REMARK  118  A    between atoms: _286  and  _288
REMARK  119  A    between atoms: _288  and  _289
REMARK  120  A    between atoms: _288  and  _291
REMARK  121  A    between atoms: _291  and  _292
REMARK  122  A    between atoms: _292  and  _293
REMARK  123  A    between atoms: _298  and  _300
REMARK  124  A    between atoms: _300  and  _301
REMARK  125  A    between atoms: _300  and  _303
REMARK  126  A    between atoms: _303  and  _304
REMARK  127  A    between atoms: _306  and  _308
REMARK  128  A    between atoms: _308  and  _309
REMARK  129  A    between atoms: _311  and  _313
REMARK  130  A    between atoms: _313  and  _314
REMARK  131  A    between atoms: _313  and  _316
REMARK  132  A    between atoms: _316  and  _317
REMARK  133  A    between atoms: _322  and  _324
REMARK  134  A    between atoms: _324  and  _325
REMARK  135  A    between atoms: _327  and  _329
REMARK  136  A    between atoms: _329  and  _330
REMARK  137  A    between atoms: _329  and  _332
REMARK  138  A    between atoms: _332  and  _333
REMARK  139  A    between atoms: _339  and  _341
REMARK  140  A    between atoms: _341  and  _342
REMARK  141  A    between atoms: _341  and  _344
REMARK  142  A    between atoms: _344  and  _345
REMARK  143  A    between atoms: _348  and  _350
REMARK  144  A    between atoms: _350  and  _351
REMARK  145  A    between atoms: _350  and  _353
REMARK  146  A    between atoms: _353  and  _354
REMARK  147  A    between atoms: _354  and  _355
REMARK  148  A    between atoms: _358  and  _360
REMARK  149  A    between atoms: _360  and  _361
REMARK  150  A    between atoms: _360  and  _363
REMARK  151  A    between atoms: _363  and  _364
REMARK  152  A    between atoms: _367  and  _369
REMARK  153  A    between atoms: _369  and  _370
REMARK  154  A    between atoms: _369  and  _372
REMARK  155  A    between atoms: _375  and  _377
REMARK  156  A    between atoms: _377  and  _378
REMARK  157  A    between atoms: _377  and  _380
REMARK  158  A    between atoms: _380  and  _381
REMARK  159  A    between atoms: _384  and  _386
REMARK  160  A    between atoms: _386  and  _387
REMARK  161  A    between atoms: _386  and  _389
REMARK  162  A    between atoms: _389  and  _390
REMARK  163  A    between atoms: _395  and  _397
REMARK  164  A    between atoms: _397  and  _398
REMARK  165  A    between atoms: _400  and  _402
REMARK  166  A    between atoms: _402  and  _403
REMARK  167  A    between atoms: _402  and  _405
REMARK  168  A    between atoms: _405  and  _406
REMARK  169  A    between atoms: _406  and  _407
REMARK  170  A    between atoms: _409  and  _411
REMARK  171  A    between atoms: _411  and  _412
REMARK  172  A    between atoms: _411  and  _414
REMARK  173  A    between atoms: _417  and  _419
REMARK  174  A    between atoms: _419  and  _420
REMARK  175  A    between atoms: _419  and  _422
REMARK  176  A    between atoms: _422  and  _423
REMARK  177  A    between atoms: _425  and  _427
REMARK  178  A    between atoms: _427  and  _428
REMARK  179  A    between atoms: _427  and  _430
REMARK  180  A    between atoms: _430  and  _431
REMARK  181  A    between atoms: _433  and  _435
REMARK  182  A    between atoms: _435  and  _436
REMARK  183  A    between atoms: _435  and  _438
REMARK  184  A    between atoms: _438  and  _439
REMARK  185  A    between atoms: _439  and  _440
REMARK  186  A    between atoms: _445  and  _447
REMARK  187  A    between atoms: _447  and  _448
REMARK  188  A    between atoms: _451  and  _453
REMARK  189  A    between atoms: _453  and  _454
REMARK  190  A    between atoms: _453  and  _456
REMARK  191  A    between atoms: _456  and  _457
REMARK  192  A    between atoms: _457  and  _458
REMARK  193  A    between atoms: _460  and  _462
REMARK  194  A    between atoms: _462  and  _463
REMARK  195  A    between atoms: _462  and  _465
REMARK  196  A    between atoms: _465  and  _466
REMARK  197  A    between atoms: _471  and  _472
REMARK  198  A    between atoms: _474  and  _476
REMARK  199  A    between atoms: _476  and  _477
REMARK  200  A    between atoms: _476  and  _479
REMARK  201  A    between atoms: _479  and  _480
REMARK  202  A    between atoms: _483  and  _485
REMARK  203  A    between atoms: _485  and  _486
REMARK  204  A    between atoms: _485  and  _488
REMARK  205  A    between atoms: _488  and  _489
REMARK  206  A    between atoms: _491  and  _493
REMARK  207  A    between atoms: _493  and  _494
REMARK  208  A    between atoms: _493  and  _496
REMARK  209  A    between atoms: _496  and  _497
REMARK  210  A    between atoms: _500  and  _502
REMARK  211  A    between atoms: _502  and  _503
REMARK  212  A    between atoms: _502  and  _505
REMARK  213  A    between atoms: _505  and  _506
REMARK  214  A    between atoms: _506  and  _507
REMARK  215  A    between atoms: _509  and  _511
REMARK  216  A    between atoms: _511  and  _512
REMARK  217  A    between atoms: _511  and  _514
REMARK  218  A    between atoms: _514  and  _515
REMARK  219  A    between atoms: _520  and  _521
REMARK  220  A    between atoms: _523  and  _525
REMARK  221  A    between atoms: _525  and  _526
REMARK  222  A    between atoms: _525  and  _528
REMARK  223  A    between atoms: _528  and  _529
REMARK  224  A    between atoms: _529  and  _530
REMARK  225  A    between atoms: _530  and  _531
REMARK  226  A    between atoms: _540  and  _542
REMARK  227  A    between atoms: _542  and  _543
REMARK  228  A    between atoms: _542  and  _545
REMARK  229  A    between atoms: _545  and  _546
REMARK  230  A    between atoms: _548  and  _550
REMARK  231  A    between atoms: _550  and  _551
REMARK  232  A    between atoms: _550  and  _553
REMARK  233  A    between atoms: _553  and  _554
REMARK  234  A    between atoms: _559  and  _560
REMARK  235  A    between atoms: _562  and  _564
REMARK  236  A    between atoms: _564  and  _565
REMARK  237  A    between atoms: _568  and  _570
REMARK  238  A    between atoms: _570  and  _571
REMARK  239  A    between atoms: _574  and  _576
REMARK  240  A    between atoms: _576  and  _577
REMARK  241  A    between atoms: _576  and  _579
REMARK  242  A    between atoms: _579  and  _580
REMARK  243  A    between atoms: _580  and  _581
REMARK  244  A    between atoms: _581  and  _582
REMARK  245  A    between atoms: _591  and  _593
REMARK  246  A    between atoms: _593  and  _594
REMARK  247  A    between atoms: _593  and  _596
REMARK  248  A    between atoms: _599  and  _601
REMARK  249  A    between atoms: _601  and  _602
REMARK  250  A    between atoms: _604  and  _606
REMARK  251  A    between atoms: _606  and  _607
REMARK  252  A    between atoms: _606  and  _609
REMARK  253  A    between atoms: _609  and  _610
REMARK  254  A    between atoms: _613  and  _615
REMARK  255  A    between atoms: _615  and  _616
REMARK  256  A    between atoms: _619  and  _621
REMARK  257  A    between atoms: _621  and  _622
REMARK  258  A    between atoms: _621  and  _624
REMARK  259  A    between atoms: _624  and  _625
REMARK  260  A    between atoms: _628  and  _630
REMARK  261  A    between atoms: _630  and  _631
REMARK  262  A    between atoms: _630  and  _633
REMARK  263  A    between atoms: _633  and  _634
REMARK  264  A    between atoms: _639  and  _640
REMARK  265  A    between atoms: _642  and  _644
REMARK  266  A    between atoms: _644  and  _645
REMARK  267  A    between atoms: _644  and  _647
REMARK  268  A    between atoms: _647  and  _648
REMARK  269  A    between atoms: _648  and  _649
REMARK  270  A    between atoms: _651  and  _653
REMARK  271  A    between atoms: _653  and  _654
REMARK  272  A    between atoms: _653  and  _656
REMARK  273  A    between atoms: _656  and  _657
REMARK  274  A    between atoms: _657  and  _658
REMARK  275  A    between atoms: _661  and  _663
REMARK  276  A    between atoms: _663  and  _664
REMARK  277  A    between atoms: _663  and  _666
REMARK  278  A    between atoms: _666  and  _667
REMARK  279  A    between atoms: _673  and  _675
REMARK  280  A    between atoms: _675  and  _676
REMARK  281  A    between atoms: _675  and  _678
REMARK  282  A    between atoms: _678  and  _679
REMARK  283  A    between atoms: _684  and  _686
REMARK  284  A    between atoms: _686  and  _687
REMARK  285  A    between atoms: _686  and  _689
REMARK  286  A    between atoms: _689  and  _690
REMARK  287  A    between atoms: _700  and  _702
REMARK  288  A    between atoms: _702  and  _703
REMARK  289  A    between atoms: _702  and  _705
REMARK  290  A    between atoms: _708  and  _710
REMARK  291  A    between atoms: _710  and  _711
REMARK  292  A    between atoms: _710  and  _713
REMARK  293  A    between atoms: _713  and  _714
REMARK  294  A    between atoms: _717  and  _719
REMARK  295  A    between atoms: _719  and  _720
REMARK  296  A    between atoms: _719  and  _722
REMARK  297  A    between atoms: _722  and  _723
REMARK  298  A    between atoms: _723  and  _724
REMARK  299  A    between atoms: _726  and  _728
REMARK  300  A    between atoms: _728  and  _729
REMARK  301  A    between atoms: _728  and  _731
REMARK  302  A    between atoms: _731  and  _732
REMARK  303  A    between atoms: _735  and  _737
REMARK  304  A    between atoms: _737  and  _738
REMARK  305  A    between atoms: _737  and  _740
REMARK  306  A    between atoms: _740  and  _741
REMARK  307  A    between atoms: _744  and  _746
REMARK  308  A    between atoms: _746  and  _747
REMARK  309  A    between atoms: _746  and  _749
REMARK  310  A    between atoms: _749  and  _750
REMARK  311  A    between atoms: _753  and  _755
REMARK  312  A    between atoms: _755  and  _756
REMARK  313  A    between atoms: _755  and  _758
REMARK  314  A    between atoms: _758  and  _759
REMARK  315  A    between atoms: _762  and  _764
REMARK  316  A    between atoms: _764  and  _765
REMARK  317  A    between atoms: _767  and  _769
REMARK  318  A    between atoms: _769  and  _770
REMARK  319  A    between atoms: _769  and  _772
REMARK  320  A    between atoms: _772  and  _773
REMARK  321  A    between atoms: _775  and  _777
REMARK  322  A    between atoms: _777  and  _778
REMARK  323  A    between atoms: _777  and  _780
REMARK  324  A    between atoms: _780  and  _781
REMARK  325  A    between atoms: _791  and  _793
REMARK  326  A    between atoms: _793  and  _794
REMARK  327  A    between atoms: _793  and  _796
REMARK  328  A    between atoms: _796  and  _797
REMARK  329  A    between atoms: _799  and  _801
REMARK  330  A    between atoms: _801  and  _802
REMARK  331  A    between atoms: _801  and  _804
REMARK  332  A    between atoms: _804  and  _805
REMARK  333  A    between atoms: _808  and  _810
REMARK  334  A    between atoms: _810  and  _811
REMARK  335  A    between atoms: _814  and  _816
REMARK  336  A    between atoms: _816  and  _817
REMARK  337  A    between atoms: _816  and  _819
REMARK  338  A    between atoms: _819  and  _820
REMARK  339  A    between atoms: _822  and  _824
REMARK  340  A    between atoms: _824  and  _825
REMARK  341  A    between atoms: _824  and  _827
REMARK  342  A    between atoms: _827  and  _828
REMARK  343  A    between atoms: _828  and  _829
REMARK  344  A    between atoms: _832  and  _834
REMARK  345  A    between atoms: _834  and  _835
REMARK  346  A    between atoms: _834  and  _837
REMARK  347  A    between atoms: _837  and  _838
REMARK  348  A    between atoms: _840  and  _842
REMARK  349  A    between atoms: _842  and  _843
REMARK  350  A    between atoms: _842  and  _845
REMARK  351  A    between atoms: _845  and  _846
REMARK  352  A    between atoms: _846  and  _847
REMARK  353  A    between atoms: _852  and  _854
REMARK  354  A    between atoms: _854  and  _855
REMARK  355  A    between atoms: _854  and  _857
REMARK  356  A    between atoms: _857  and  _858
REMARK  357  A    between atoms: _858  and  _859
REMARK  358  A    between atoms: _864  and  _866
REMARK  359  A    between atoms: _866  and  _867
REMARK  360  A    between atoms: _866  and  _869
REMARK  361  A    between atoms: _869  and  _870
REMARK  362  A    between atoms: _873  and  _875
REMARK  363  A    between atoms: _875  and  _876
REMARK  364  A    between atoms: _875  and  _878
REMARK  365  A    between atoms: _878  and  _879
REMARK  366  A    between atoms: _882  and  _884
REMARK  367  A    between atoms: _884  and  _885
REMARK  368  A    between atoms: _884  and  _887
REMARK  369  A    between atoms: _887  and  _888
REMARK  370  A    between atoms: _895  and  _896
REMARK  371  A    between atoms: _901  and  _903
REMARK  372  A    between atoms: _903  and  _904
REMARK  373  A    between atoms: _903  and  _906
REMARK  374  A    between atoms: _906  and  _907
REMARK  375  A    between atoms: _912  and  _913
REMARK  376  A    between atoms: _915  and  _917
REMARK  377  A    between atoms: _917  and  _918
REMARK  378  A    between atoms: _917  and  _920
REMARK  379  A    between atoms: _920  and  _921
REMARK  380  A    between atoms: _926  and  _928
REMARK  381  A    between atoms: _928  and  _929
REMARK  382  A    between atoms: _928  and  _931
REMARK  383  A    between atoms: _931  and  _932
REMARK  384  A    between atoms: _938  and  _940
REMARK  385  A    between atoms: _940  and  _941
REMARK  386  A    between atoms: _940  and  _943
REMARK  387  A    between atoms: _943  and  _944
REMARK  388  A    between atoms: _947  and  _949
REMARK  389  A    between atoms: _949  and  _950
REMARK  390  A    between atoms: _949  and  _952
REMARK  391  A    between atoms: _952  and  _953
REMARK  392  A    between atoms: _958  and  _960
REMARK  393  A    between atoms: _960  and  _961
REMARK  394  A    between atoms: _960  and  _963
REMARK  395  A    between atoms: _963  and  _964
REMARK  396  A    between atoms: _970  and  _972
REMARK  397  A    between atoms: _972  and  _973
REMARK  398  A    between atoms: _972  and  _975
REMARK  399  A    between atoms: _975  and  _976
REMARK  400  A    between atoms: _976  and  _977
REMARK  401  A    between atoms: _979  and  _981
REMARK  402  A    between atoms: _981  and  _982
REMARK  403  A    between atoms: _981  and  _984
REMARK  404  A    between atoms: _984  and  _985
REMARK  405  A    between atoms: _988  and  _990
REMARK  406  A    between atoms: _990  and  _991
REMARK  407  A    between atoms: _990  and  _993
REMARK  408  A    between atoms: _993  and  _994
REMARK  409  A    between atoms: _999  and  _1001
REMARK  410  A    between atoms: _1001  and  _1002
REMARK  411  A    between atoms: _1001  and  _1004
REMARK  412  A    between atoms: _1004  and  _1005
REMARK  413  A    between atoms: _1010  and  _1011
REMARK                            x       y       z     vdW  Elec       q    Type
REMARK                         _______ _______ _______ _____ _____    ______ ____
ROOT
ATOM      1  C   GLU A   2       0.140 -20.494  19.220  0.00  0.00    +0.241 C 
ATOM      2  N   PHE A   3      -0.677 -20.075  20.185  0.00  0.00    -0.297 N 
ATOM      3  H   PHE A   3      -0.712 -20.611  21.076  0.00  0.00    +0.150 HD
ATOM      4  O   GLU A   2       0.367 -19.844  18.200  0.00  0.00    -0.273 OA
ENDROOT
BRANCH   2   5
ATOM      5  CA  PHE A   3      -1.532 -18.887  20.045  0.00  0.00    +0.153 C 
BRANCH   5   6
ATOM      6  C   PHE A   3      -0.788 -17.577  19.769  0.00  0.00    +0.241 C 
ATOM      7  N   ASN A   4       0.251 -17.293  20.553  0.00  0.00    -0.298 N 
ATOM      8  H   ASN A   4       0.533 -17.974  21.287  0.00  0.00    +0.150 HD
ATOM      9  O   PHE A   3      -1.160 -16.840  18.856  0.00  0.00    -0.273 OA
BRANCH   7  10
ATOM     10  CA  ASN A   4       1.007 -16.046  20.409  0.00  0.00    +0.146 C 
BRANCH  10  11
ATOM     11  C   ASN A   4       1.707 -15.907  19.061  0.00  0.00    +0.227 C 
ATOM     12  O   ASN A   4       1.653 -14.843  18.441  0.00  0.00    -0.286 OA
ENDBRANCH  10  11
BRANCH  10  13
ATOM     13  CB  ASN A   4       2.009 -15.864  21.556  0.00  0.00    +0.112 C 
BRANCH  13  14
ATOM     14  CG  ASN A   4       1.355 -15.362  22.836  0.00  0.00    +0.222 C 
ATOM     15  ND2 ASN A   4       2.047 -15.539  23.959  0.00  0.00    -0.329 N 
ATOM     16 HD21 ASN A   4       1.657 -15.215  24.867  0.00  0.00    +0.145 HD
ATOM     17 HD22 ASN A   4       2.978 -16.001  23.929  0.00  0.00    +0.145 HD
ATOM     18  OD1 ASN A   4       0.247 -14.820  22.817  0.00  0.00    -0.275 OA
ENDBRANCH  13  14
ENDBRANCH  10  13
ENDBRANCH   7  10
ENDBRANCH   5   6
BRANCH   5  19
ATOM     19  CB  PHE A   3      -2.465 -18.744  21.259  0.00  0.00    +0.055 C 
BRANCH  19  20
ATOM     20  CG  PHE A   3      -3.319 -17.503  21.236  0.00  0.00    -0.020 A 
ATOM     21  CD2 PHE A   3      -3.125 -16.495  22.176  0.00  0.00    -0.004 A 
ATOM     22  CE2 PHE A   3      -3.913 -15.346  22.162  0.00  0.00    -0.000 A 
ATOM     23  CZ  PHE A   3      -4.908 -15.200  21.203  0.00  0.00    -0.000 A 
ATOM     24  CE1 PHE A   3      -5.113 -16.200  20.261  0.00  0.00    -0.000 A 
ATOM     25  CD1 PHE A   3      -4.324 -17.345  20.283  0.00  0.00    -0.004 A 
ENDBRANCH  19  20
ENDBRANCH   5  19
ENDBRANCH   2   5
BRANCH   1  26
ATOM     26  CA  GLU A   2       0.807 -21.855  19.435  0.00  0.00    +0.149 C 
BRANCH  26  28
ATOM     27  C   MET A   1      -0.113 -23.059  17.491  0.00  0.00    +0.238 C 
ATOM     28  N   GLU A   2       0.926 -22.559  18.158  0.00  0.00    -0.297 N 
ATOM     29  H   GLU A   2       1.875 -22.676  17.748  0.00  0.00    +0.150 HD
ATOM     30  O   MET A   1      -1.275 -23.013  17.904  0.00  0.00    -0.274 OA
BRANCH  27  31
ATOM     31  CA  MET A   1       0.215 -23.713  16.149  0.00  0.00    +0.146 C 
BRANCH  31  32
ATOM     32  N   MET A   1      -0.407 -25.024  15.994  0.00  0.00    -0.238 NA
ATOM     33  H   MET A   1      -1.362 -25.077  15.586  0.00  0.00    +0.142 HD
ENDBRANCH  31  32
BRANCH  31  34
ATOM     34  CB  MET A   1      -0.208 -22.802  14.993  0.00  0.00    +0.038 C 
BRANCH  34  35
ATOM     35  CG  MET A   1       0.786 -21.707  14.659  0.00  0.00    +0.060 C 
BRANCH  35  36
ATOM     36  SD  MET A   1       0.560 -21.081  12.984  0.00  0.00    -0.139 S 
ATOM     37  CE  MET A   1       1.938 -19.942  12.877  0.00  0.00    +0.069 C 
ENDBRANCH  35  36
ENDBRANCH  34  35
ENDBRANCH  31  34
ENDBRANCH  27  31
ENDBRANCH  26  28
BRANCH  26  38
ATOM     38  CB  GLU A   2       2.197 -21.709  20.071  0.00  0.00    +0.041 C 
BRANCH  38  39
ATOM     39  CG  GLU A   2       2.228 -21.167  21.500  0.00  0.00    +0.116 C 
BRANCH  39  40
ATOM     40  CD  GLU A   2       2.549 -19.677  21.572  0.00  0.00    +0.365 C 
ATOM     41  OE2 GLU A   2       2.125 -19.028  22.550  0.00  0.00    -0.246 OA
ATOM     42  OE1 GLU A   2       3.236 -19.153  20.666  0.00  0.00    -0.246 OA
ENDBRANCH  39  40
ENDBRANCH  38  39
ENDBRANCH  26  38
ENDBRANCH   1  26
TORSDOF 18
REMARK  Name = ../refined-set-2016/3drg/3drg_pocket.pdb
REMARK  413 active torsions:
REMARK  status: ('A' for Active; 'I' for Inactive)
REMARK    1  A    between atoms: _1  and  _3
REMARK    2  A    between atoms: _3  and  _4
REMARK    3  A    between atoms: _3  and  _6
REMARK    4  A    between atoms: _6  and  _7
REMARK    5  A    between atoms: _12  and  _13
REMARK    6  A    between atoms: _15  and  _17
REMARK    7  A    between atoms: _17  and  _18
REMARK    8  A    between atoms: _17  and  _20
REMARK    9  A    between atoms: _20  and  _21
REMARK   10  A    between atoms: _21  and  _22
REMARK   11  A    between atoms: _27  and  _29
REMARK   12  A    between atoms: _29  and  _30
REMARK   13  A    between atoms: _29  and  _32
REMARK   14  A    between atoms: _32  and  _33
REMARK   15  A    between atoms: _35  and  _37
REMARK   16  A    between atoms: _37  and  _38
REMARK   17  A    between atoms: _37  and  _40
REMARK   18  A    between atoms: _40  and  _41
REMARK   19  A    between atoms: _44  and  _46
REMARK   20  A    between atoms: _46  and  _47
REMARK   21  A    between atoms: _46  and  _49
REMARK   22  A    between atoms: _49  and  _50
REMARK   23  A    between atoms: _52  and  _54
REMARK   24  A    between atoms: _54  and  _55
REMARK   25  A    between atoms: _54  and  _57
REMARK   26  A    between atoms: _57  and  _58
REMARK   27  A    between atoms: _61  and  _63
REMARK   28  A    between atoms: _63  and  _64
REMARK   29  A    between atoms: _63  and  _66
REMARK   30  A    between atoms: _66  and  _67
REMARK   31  A    between atoms: _69  and  _71
REMARK   32  A    between atoms: _71  and  _72
REMARK   33  A    between atoms: _74  and  _76
REMARK   34  A    between atoms: _76  and  _77
REMARK   35  A    between atoms: _76  and  _79
REMARK   36  A    between atoms: _79  and  _80
REMARK   37  A    between atoms: _82  and  _84
REMARK   38  A    between atoms: _84  and  _85
REMARK   39  A    between atoms: _84  and  _87
REMARK   40  A    between atoms: _87  and  _88
REMARK   41  A    between atoms: _93  and  _95
REMARK   42  A    between atoms: _95  and  _96
REMARK   43  A    between atoms: _95  and  _98
REMARK   44  A    between atoms: _98  and  _99
REMARK   45  A    between atoms: _102  and  _104
REMARK   46  A    between atoms: _104  and  _105
REMARK   47  A    between atoms: _108  and  _110
REMARK   48  A    between atoms: _110  and  _111
REMARK   49  A    between atoms: _110  and  _113
REMARK   50  A    between atoms: _113  and  _114
REMARK   51  A    between atoms: _117  and  _119
REMARK   52  A    between atoms: _119  and  _120
REMARK   53  A    between atoms: _119  and  _122
REMARK   54  A    between atoms: _122  and  _123
REMARK   55  A    between atoms: _129  and  _131
REMARK   56  A    between atoms: _131  and  _132
REMARK   57  A    between atoms: _135  and  _137
REMARK   58  A    between atoms: _137  and  _138
REMARK   59  A    between atoms: _137  and  _140
REMARK   60  A    between atoms: _140  and  _141
REMARK   61  A    between atoms: _144  and  _146
REMARK   62  A    between atoms: _146  and  _147
REMARK   63  A    between atoms: _146  and  _149
REMARK   64  A    between atoms: _149  and  _150
REMARK   65  A    between atoms: _152  and  _154
REMARK   66  A    between atoms: _154  and  _155
REMARK   67  A    between atoms: _157  and  _159
REMARK   68  A    between atoms: _159  and  _160
REMARK   69  A    between atoms: _162  and  _164
REMARK   70  A    between atoms: _164  and  _165
REMARK   71  A    between atoms: _164  and  _167
REMARK   72  A    between atoms: _167  and  _168
REMARK   73  A    between atoms: _168  and  _169
REMARK   74  A    between atoms: _174  and  _176
REMARK   75  A    between atoms: _176  and  _177
REMARK   76  A    between atoms: _176  and  _179
REMARK   77  A    between atoms: _179  and  _180
REMARK   78  A    between atoms: _183  and  _185
REMARK   79  A    between atoms: _185  and  _186
REMARK   80  A    between atoms: _188  and  _190
REMARK   81  A    between atoms: _190  and  _191
REMARK   82  A    between atoms: _190  and  _193
REMARK   83  A    between atoms: _193  and  _194
REMARK   84  A    between atoms: _197  and  _199
REMARK   85  A    between atoms: _199  and  _200
REMARK   86  A    between atoms: _199  and  _202
REMARK   87  A    between atoms: _202  and  _203
REMARK   88  A    between atoms: _209  and  _211
REMARK   89  A    between atoms: _211  and  _212
REMARK   90  A    between atoms: _211  and  _214
REMARK   91  A    between atoms: _214  and  _215
REMARK   92  A    between atoms: _218  and  _220
REMARK   93  A    between atoms: _220  and  _221
REMARK   94  A    between atoms: _220  and  _223
REMARK   95  A    between atoms: _223  and  _224
REMARK   96  A    between atoms: _230  and  _232
REMARK   97  A    between atoms: _232  and  _233
REMARK   98  A    between atoms: _232  and  _235
REMARK   99  A    between atoms: _235  and  _236
REMARK  100  A    between atoms: _242  and  _244
REMARK  101  A    between atoms: _244  and  _245
REMARK  102  A    between atoms: _244  and  _247
REMARK  103  A    between atoms: _247  and  _248
REMARK  104  A    between atoms: _251  and  _253
REMARK  105  A    between atoms: _253  and  _254
REMARK  106  A    between atoms: _253  and  _256
REMARK  107  A    between atoms: _256  and  _257
REMARK  108  A    between atoms: _260  and  _262
REMARK  109  A    between atoms: _262  and  _263
REMARK  110  A    between atoms: _262  and  _265
REMARK  111  A    between atoms: _265  and  _266
REMARK  112  A    between atoms: _266  and  _267
REMARK  113  A    between atoms: _267  and  _268
REMARK  114  A    between atoms: _277  and  _279
REMARK  115  A    between atoms: _279  and  _280
REMARK  116  A    between atoms: _279  and  _282
REMARK  117  A    between atoms: _282  and  _283
REMARK  118  A    between atoms: _286  and  _288
REMARK  119  A    between atoms: _288  and  _289
REMARK  120  A    between atoms: _288  and  _291
REMARK  121  A    between atoms: _291  and  _292
REMARK  122  A    between atoms: _292  and  _293
REMARK  123  A    between atoms: _298  and  _300
REMARK  124  A    between atoms: _300  and  _301
REMARK  125  A    between atoms: _300  and  _303
REMARK  126  A    between atoms: _303  and  _304
REMARK  127  A    between atoms: _306  and  _308
REMARK  128  A    between atoms: _308  and  _309
REMARK  129  A    between atoms: _311  and  _313
REMARK  130  A    between atoms: _313  and  _314
REMARK  131  A    between atoms: _313  and  _316
REMARK  132  A    between atoms: _316  and  _317
REMARK  133  A    between atoms: _322  and  _324
REMARK  134  A    between atoms: _324  and  _325
REMARK  135  A    between atoms: _327  and  _329
REMARK  136  A    between atoms: _329  and  _330
REMARK  137  A    between atoms: _329  and  _332
REMARK  138  A    between atoms: _332  and  _333
REMARK  139  A    between atoms: _339  and  _341
REMARK  140  A    between atoms: _341  and  _342
REMARK  141  A    between atoms: _341  and  _344
REMARK  142  A    between atoms: _344  and  _345
REMARK  143  A    between atoms: _348  and  _350
REMARK  144  A    between atoms: _350  and  _351
REMARK  145  A    between atoms: _350  and  _353
REMARK  146  A    between atoms: _353  and  _354
REMARK  147  A    between atoms: _354  and  _355
REMARK  148  A    between atoms: _358  and  _360
REMARK  149  A    between atoms: _360  and  _361
REMARK  150  A    between atoms: _360  and  _363
REMARK  151  A    between atoms: _363  and  _364
REMARK  152  A    between atoms: _367  and  _369
REMARK  153  A    between atoms: _369  and  _370
REMARK  154  A    between atoms: _369  and  _372
REMARK  155  A    between atoms: _375  and  _377
REMARK  156  A    between atoms: _377  and  _378
REMARK  157  A    between atoms: _377  and  _380
REMARK  158  A    between atoms: _380  and  _381
REMARK  159  A    between atoms: _384  and  _386
REMARK  160  A    between atoms: _386  and  _387
REMARK  161  A    between atoms: _386  and  _389
REMARK  162  A    between atoms: _389  and  _390
REMARK  163  A    between atoms: _395  and  _397
REMARK  164  A    between atoms: _397  and  _398
REMARK  165  A    between atoms: _400  and  _402
REMARK  166  A    between atoms: _402  and  _403
REMARK  167  A    between atoms: _402  and  _405
REMARK  168  A    between atoms: _405  and  _406
REMARK  169  A    between atoms: _406  and  _407
REMARK  170  A    between atoms: _409  and  _411
REMARK  171  A    between atoms: _411  and  _412
REMARK  172  A    between atoms: _411  and  _414
REMARK  173  A    between atoms: _417  and  _419
REMARK  174  A    between atoms: _419  and  _420
REMARK  175  A    between atoms: _419  and  _422
REMARK  176  A    between atoms: _422  and  _423
REMARK  177  A    between atoms: _425  and  _427
REMARK  178  A    between atoms: _427  and  _428
REMARK  179  A    between atoms: _427  and  _430
REMARK  180  A    between atoms: _430  and  _431
REMARK  181  A    between atoms: _433  and  _435
REMARK  182  A    between atoms: _435  and  _436
REMARK  183  A    between atoms: _435  and  _438
REMARK  184  A    between atoms: _438  and  _439
REMARK  185  A    between atoms: _439  and  _440
REMARK  186  A    between atoms: _445  and  _447
REMARK  187  A    between atoms: _447  and  _448
REMARK  188  A    between atoms: _451  and  _453
REMARK  189  A    between atoms: _453  and  _454
REMARK  190  A    between atoms: _453  and  _456
REMARK  191  A    between atoms: _456  and  _457
REMARK  192  A    between atoms: _457  and  _458
REMARK  193  A    between atoms: _460  and  _462
REMARK  194  A    between atoms: _462  and  _463
REMARK  195  A    between atoms: _462  and  _465
REMARK  196  A    between atoms: _465  and  _466
REMARK  197  A    between atoms: _471  and  _472
REMARK  198  A    between atoms: _474  and  _476
REMARK  199  A    between atoms: _476  and  _477
REMARK  200  A    between atoms: _476  and  _479
REMARK  201  A    between atoms: _479  and  _480
REMARK  202  A    between atoms: _483  and  _485
REMARK  203  A    between atoms: _485  and  _486
REMARK  204  A    between atoms: _485  and  _488
REMARK  205  A    between atoms: _488  and  _489
REMARK  206  A    between atoms: _491  and  _493
REMARK  207  A    between atoms: _493  and  _494
REMARK  208  A    between atoms: _493  and  _496
REMARK  209  A    between atoms: _496  and  _497
REMARK  210  A    between atoms: _500  and  _502
REMARK  211  A    between atoms: _502  and  _503
REMARK  212  A    between atoms: _502  and  _505
REMARK  213  A    between atoms: _505  and  _506
REMARK  214  A    between atoms: _506  and  _507
REMARK  215  A    between atoms: _509  and  _511
REMARK  216  A    between atoms: _511  and  _512
REMARK  217  A    between atoms: _511  and  _514
REMARK  218  A    between atoms: _514  and  _515
REMARK  219  A    between atoms: _520  and  _521
REMARK  220  A    between atoms: _523  and  _525
REMARK  221  A    between atoms: _525  and  _526
REMARK  222  A    between atoms: _525  and  _528
REMARK  223  A    between atoms: _528  and  _529
REMARK  224  A    between atoms: _529  and  _530
REMARK  225  A    between atoms: _530  and  _531
REMARK  226  A    between atoms: _540  and  _542
REMARK  227  A    between atoms: _542  and  _543
REMARK  228  A    between atoms: _542  and  _545
REMARK  229  A    between atoms: _545  and  _546
REMARK  230  A    between atoms: _548  and  _550
REMARK  231  A    between atoms: _550  and  _551
REMARK  232  A    between atoms: _550  and  _553
REMARK  233  A    between atoms: _553  and  _554
REMARK  234  A    between atoms: _559  and  _560
REMARK  235  A    between atoms: _562  and  _564
REMARK  236  A    between atoms: _564  and  _565
REMARK  237  A    between atoms: _568  and  _570
REMARK  238  A    between atoms: _570  and  _571
REMARK  239  A    between atoms: _574  and  _576
REMARK  240  A    between atoms: _576  and  _577
REMARK  241  A    between atoms: _576  and  _579
REMARK  242  A    between atoms: _579  and  _580
REMARK  243  A    between atoms: _580  and  _581
REMARK  244  A    between atoms: _581  and  _582
REMARK  245  A    between atoms: _591  and  _593
REMARK  246  A    between atoms: _593  and  _594
REMARK  247  A    between atoms: _593  and  _596
REMARK  248  A    between atoms: _599  and  _601
REMARK  249  A    between atoms: _601  and  _602
REMARK  250  A    between atoms: _604  and  _606
REMARK  251  A    between atoms: _606  and  _607
REMARK  252  A    between atoms: _606  and  _609
REMARK  253  A    between atoms: _609  and  _610
REMARK  254  A    between atoms: _613  and  _615
REMARK  255  A    between atoms: _615  and  _616
REMARK  256  A    between atoms: _619  and  _621
REMARK  257  A    between atoms: _621  and  _622
REMARK  258  A    between atoms: _621  and  _624
REMARK  259  A    between atoms: _624  and  _625
REMARK  260  A    between atoms: _628  and  _630
REMARK  261  A    between atoms: _630  and  _631
REMARK  262  A    between atoms: _630  and  _633
REMARK  263  A    between atoms: _633  and  _634
REMARK  264  A    between atoms: _639  and  _640
REMARK  265  A    between atoms: _642  and  _644
REMARK  266  A    between atoms: _644  and  _645
REMARK  267  A    between atoms: _644  and  _647
REMARK  268  A    between atoms: _647  and  _648
REMARK  269  A    between atoms: _648  and  _649
REMARK  270  A    between atoms: _651  and  _653
REMARK  271  A    between atoms: _653  and  _654
REMARK  272  A    between atoms: _653  and  _656
REMARK  273  A    between atoms: _656  and  _657
REMARK  274  A    between atoms: _657  and  _658
REMARK  275  A    between atoms: _661  and  _663
REMARK  276  A    between atoms: _663  and  _664
REMARK  277  A    between atoms: _663  and  _666
REMARK  278  A    between atoms: _666  and  _667
REMARK  279  A    between atoms: _673  and  _675
REMARK  280  A    between atoms: _675  and  _676
REMARK  281  A    between atoms: _675  and  _678
REMARK  282  A    between atoms: _678  and  _679
REMARK  283  A    between atoms: _684  and  _686
REMARK  284  A    between atoms: _686  and  _687
REMARK  285  A    between atoms: _686  and  _689
REMARK  286  A    between atoms: _689  and  _690
REMARK  287  A    between atoms: _700  and  _702
REMARK  288  A    between atoms: _702  and  _703
REMARK  289  A    between atoms: _702  and  _705
REMARK  290  A    between atoms: _708  and  _710
REMARK  291  A    between atoms: _710  and  _711
REMARK  292  A    between atoms: _710  and  _713
REMARK  293  A    between atoms: _713  and  _714
REMARK  294  A    between atoms: _717  and  _719
REMARK  295  A    between atoms: _719  and  _720
REMARK  296  A    between atoms: _719  and  _722
REMARK  297  A    between atoms: _722  and  _723
REMARK  298  A    between atoms: _723  and  _724
REMARK  299  A    between atoms: _726  and  _728
REMARK  300  A    between atoms: _728  and  _729
REMARK  301  A    between atoms: _728  and  _731
REMARK  302  A    between atoms: _731  and  _732
REMARK  303  A    between atoms: _735  and  _737
REMARK  304  A    between atoms: _737  and  _738
REMARK  305  A    between atoms: _737  and  _740
REMARK  306  A    between atoms: _740  and  _741
REMARK  307  A    between atoms: _744  and  _746
REMARK  308  A    between atoms: _746  and  _747
REMARK  309  A    between atoms: _746  and  _749
REMARK  310  A    between atoms: _749  and  _750
REMARK  311  A    between atoms: _753  and  _755
REMARK  312  A    between atoms: _755  and  _756
REMARK  313  A    between atoms: _755  and  _758
REMARK  314  A    between atoms: _758  and  _759
REMARK  315  A    between atoms: _762  and  _764
REMARK  316  A    between atoms: _764  and  _765
REMARK  317  A    between atoms: _767  and  _769
REMARK  318  A    between atoms: _769  and  _770
REMARK  319  A    between atoms: _769  and  _772
REMARK  320  A    between atoms: _772  and  _773
REMARK  321  A    between atoms: _775  and  _777
REMARK  322  A    between atoms: _777  and  _778
REMARK  323  A    between atoms: _777  and  _780
REMARK  324  A    between atoms: _780  and  _781
REMARK  325  A    between atoms: _791  and  _793
REMARK  326  A    between atoms: _793  and  _794
REMARK  327  A    between atoms: _793  and  _796
REMARK  328  A    between atoms: _796  and  _797
REMARK  329  A    between atoms: _799  and  _801
REMARK  330  A    between atoms: _801  and  _802
REMARK  331  A    between atoms: _801  and  _804
REMARK  332  A    between atoms: _804  and  _805
REMARK  333  A    between atoms: _808  and  _810
REMARK  334  A    between atoms: _810  and  _811
REMARK  335  A    between atoms: _814  and  _816
REMARK  336  A    between atoms: _816  and  _817
REMARK  337  A    between atoms: _816  and  _819
REMARK  338  A    between atoms: _819  and  _820
REMARK  339  A    between atoms: _822  and  _824
REMARK  340  A    between atoms: _824  and  _825
REMARK  341  A    between atoms: _824  and  _827
REMARK  342  A    between atoms: _827  and  _828
REMARK  343  A    between atoms: _828  and  _829
REMARK  344  A    between atoms: _832  and  _834
REMARK  345  A    between atoms: _834  and  _835
REMARK  346  A    between atoms: _834  and  _837
REMARK  347  A    between atoms: _837  and  _838
REMARK  348  A    between atoms: _840  and  _842
REMARK  349  A    between atoms: _842  and  _843
REMARK  350  A    between atoms: _842  and  _845
REMARK  351  A    between atoms: _845  and  _846
REMARK  352  A    between atoms: _846  and  _847
REMARK  353  A    between atoms: _852  and  _854
REMARK  354  A    between atoms: _854  and  _855
REMARK  355  A    between atoms: _854  and  _857
REMARK  356  A    between atoms: _857  and  _858
REMARK  357  A    between atoms: _858  and  _859
REMARK  358  A    between atoms: _864  and  _866
REMARK  359  A    between atoms: _866  and  _867
REMARK  360  A    between atoms: _866  and  _869
REMARK  361  A    between atoms: _869  and  _870
REMARK  362  A    between atoms: _873  and  _875
REMARK  363  A    between atoms: _875  and  _876
REMARK  364  A    between atoms: _875  and  _878
REMARK  365  A    between atoms: _878  and  _879
REMARK  366  A    between atoms: _882  and  _884
REMARK  367  A    between atoms: _884  and  _885
REMARK  368  A    between atoms: _884  and  _887
REMARK  369  A    between atoms: _887  and  _888
REMARK  370  A    between atoms: _895  and  _896
REMARK  371  A    between atoms: _901  and  _903
REMARK  372  A    between atoms: _903  and  _904
REMARK  373  A    between atoms: _903  and  _906
REMARK  374  A    between atoms: _906  and  _907
REMARK  375  A    between atoms: _912  and  _913
REMARK  376  A    between atoms: _915  and  _917
REMARK  377  A    between atoms: _917  and  _918
REMARK  378  A    between atoms: _917  and  _920
REMARK  379  A    between atoms: _920  and  _921
REMARK  380  A    between atoms: _926  and  _928
REMARK  381  A    between atoms: _928  and  _929
REMARK  382  A    between atoms: _928  and  _931
REMARK  383  A    between atoms: _931  and  _932
REMARK  384  A    between atoms: _938  and  _940
REMARK  385  A    between atoms: _940  and  _941
REMARK  386  A    between atoms: _940  and  _943
REMARK  387  A    between atoms: _943  and  _944
REMARK  388  A    between atoms: _947  and  _949
REMARK  389  A    between atoms: _949  and  _950
REMARK  390  A    between atoms: _949  and  _952
REMARK  391  A    between atoms: _952  and  _953
REMARK  392  A    between atoms: _958  and  _960
REMARK  393  A    between atoms: _960  and  _961
REMARK  394  A    between atoms: _960  and  _963
REMARK  395  A    between atoms: _963  and  _964
REMARK  396  A    between atoms: _970  and  _972
REMARK  397  A    between atoms: _972  and  _973
REMARK  398  A    between atoms: _972  and  _975
REMARK  399  A    between atoms: _975  and  _976
REMARK  400  A    between atoms: _976  and  _977
REMARK  401  A    between atoms: _979  and  _981
REMARK  402  A    between atoms: _981  and  _982
REMARK  403  A    between atoms: _981  and  _984
REMARK  404  A    between atoms: _984  and  _985
REMARK  405  A    between atoms: _988  and  _990
REMARK  406  A    between atoms: _990  and  _991
REMARK  407  A    between atoms: _990  and  _993
REMARK  408  A    between atoms: _993  and  _994
REMARK  409  A    between atoms: _999  and  _1001
REMARK  410  A    between atoms: _1001  and  _1002
REMARK  411  A    between atoms: _1001  and  _1004
REMARK  412  A    between atoms: _1004  and  _1005
REMARK  413  A    between atoms: _1010  and  _1011
REMARK                            x       y       z     vdW  Elec       q    Type
REMARK                         _______ _______ _______ _____ _____    ______ ____
ROOT
ATOM      1  C   TRP A   1      -0.722 -16.233  15.088  0.00  0.00    +0.239 C 
ATOM      2  N   VAL A   2      -1.007 -15.457  16.135  0.00  0.00    -0.297 N 
ATOM      3  H   VAL A   2      -0.875 -15.843  17.092  0.00  0.00    +0.150 HD
ATOM      4  O   TRP A   1      -0.849 -15.866  13.917  0.00  0.00    -0.274 OA
ENDROOT
BRANCH   1   5
ATOM      5  CA  TRP A   1      -0.206 -17.640  15.403  0.00  0.00    +0.149 C 
BRANCH   5   6
ATOM      6  N   TRP A   1       0.865 -17.601  16.400  0.00  0.00    -0.238 NA
ATOM      7  H   TRP A   1       0.689 -18.006  17.342  0.00  0.00    +0.142 HD
ENDBRANCH   5   6
BRANCH   5   8
ATOM      8  CB  TRP A   1      -1.358 -18.544  15.865  0.00  0.00    +0.054 C 
BRANCH   8   9
ATOM      9  CG  TRP A   1      -2.512 -18.599  14.897  0.00  0.00    -0.002 A 
ATOM     10  CD2 TRP A   1      -3.728 -17.839  14.960  0.00  0.00    +0.013 A 
ATOM     11  CE3 TRP A   1      -4.231 -16.880  15.849  0.00  0.00    +0.001 A 
ATOM     12  CZ3 TRP A   1      -5.486 -16.332  15.599  0.00  0.00    +0.000 A 
ATOM     13  CH2 TRP A   1      -6.240 -16.725  14.479  0.00  0.00    +0.001 A 
ATOM     14  CZ2 TRP A   1      -5.771 -17.659  13.593  0.00  0.00    +0.017 A 
ATOM     15  CE2 TRP A   1      -4.510 -18.210  13.843  0.00  0.00    +0.056 A 
ATOM     16  NE1 TRP A   1      -3.803 -19.151  13.141  0.00  0.00    -0.352 N 
ATOM     17  HE1 TRP A   1      -4.121 -19.618  12.268  0.00  0.00    +0.166 HD
ATOM     18  CD1 TRP A   1      -2.606 -19.377  13.778  0.00  0.00    +0.068 A 
ENDBRANCH   8   9
ENDBRANCH   5   8
ENDBRANCH   1   5
BRANCH   2  19
ATOM     19  CA  VAL A   2      -1.499 -14.081  15.994  0.00  0.00    +0.148 C 
BRANCH  19  20
ATOM     20  C   VAL A   2      -0.511 -13.230  15.194  0.00  0.00    +0.241 C 
ATOM     21  N   ASP A   3       0.775 -13.363  15.523  0.00  0.00    -0.298 N 
ATOM     22  H   ASP A   3       1.024 -13.999  16.307  0.00  0.00    +0.150 HD
ATOM     23  O   VAL A   2      -0.911 -12.488  14.291  0.00  0.00    -0.273 OA
BRANCH  21  24
ATOM     24  CA  ASP A   3       1.853 -12.653  14.829  0.00  0.00    +0.148 C 
BRANCH  24  25
ATOM     25  C   ASP A   3       1.948 -13.044  13.358  0.00  0.00    +0.227 C 
ATOM     26  O   ASP A   3       2.295 -12.219  12.511  0.00  0.00    -0.286 OA
ENDBRANCH  24  25
BRANCH  24  27
ATOM     27  CB  ASP A   3       3.200 -12.907  15.518  0.00  0.00    +0.142 C 
BRANCH  27  28
ATOM     28  CG  ASP A   3       3.258 -12.343  16.931  0.00  0.00    +0.367 C 
ATOM     29  OD2 ASP A   3       4.150 -12.764  17.698  0.00  0.00    -0.246 OA
ATOM     30  OD1 ASP A   3       2.424 -11.478  17.277  0.00  0.00    -0.246 OA
ENDBRANCH  27  28
ENDBRANCH  24  27
ENDBRANCH  21  24
ENDBRANCH  19  20
BRANCH  19  31
ATOM     31  CB  VAL A   2      -1.800 -13.426  17.375  0.00  0.00    +0.027 C 
ATOM     32  CG2 VAL A   2      -2.910 -14.177  18.099  0.00  0.00    +0.002 C 
ATOM     33  CG1 VAL A   2      -2.180 -11.958  17.221  0.00  0.00    +0.002 C 
ENDBRANCH  19  31
ENDBRANCH   2  19
TORSDOF 11
REMARK  Name = ../refined-set-2016/3drg/3drg_pocket.pdb
REMARK  413 active torsions:
REMARK  status: ('A' for Active; 'I' for Inactive)
REMARK    1  A    between atoms: _1  and  _3
REMARK    2  A    between atoms: _3  and  _4
REMARK    3  A    between atoms: _3  and  _6
REMARK    4  A    between atoms: _6  and  _7
REMARK    5  A    between atoms: _12  and  _13
REMARK    6  A    between atoms: _15  and  _17
REMARK    7  A    between atoms: _17  and  _18
REMARK    8  A    between atoms: _17  and  _20
REMARK    9  A    between atoms: _20  and  _21
REMARK   10  A    between atoms: _21  and  _22
REMARK   11  A    between atoms: _27  and  _29
REMARK   12  A    between atoms: _29  and  _30
REMARK   13  A    between atoms: _29  and  _32
REMARK   14  A    between atoms: _32  and  _33
REMARK   15  A    between atoms: _35  and  _37
REMARK   16  A    between atoms: _37  and  _38
REMARK   17  A    between atoms: _37  and  _40
REMARK   18  A    between atoms: _40  and  _41
REMARK   19  A    between atoms: _44  and  _46
REMARK   20  A    between atoms: _46  and  _47
REMARK   21  A    between atoms: _46  and  _49
REMARK   22  A    between atoms: _49  and  _50
REMARK   23  A    between atoms: _52  and  _54
REMARK   24  A    between atoms: _54  and  _55
REMARK   25  A    between atoms: _54  and  _57
REMARK   26  A    between atoms: _57  and  _58
REMARK   27  A    between atoms: _61  and  _63
REMARK   28  A    between atoms: _63  and  _64
REMARK   29  A    between atoms: _63  and  _66
REMARK   30  A    between atoms: _66  and  _67
REMARK   31  A    between atoms: _69  and  _71
REMARK   32  A    between atoms: _71  and  _72
REMARK   33  A    between atoms: _74  and  _76
REMARK   34  A    between atoms: _76  and  _77
REMARK   35  A    between atoms: _76  and  _79
REMARK   36  A    between atoms: _79  and  _80
REMARK   37  A    between atoms: _82  and  _84
REMARK   38  A    between atoms: _84  and  _85
REMARK   39  A    between atoms: _84  and  _87
REMARK   40  A    between atoms: _87  and  _88
REMARK   41  A    between atoms: _93  and  _95
REMARK   42  A    between atoms: _95  and  _96
REMARK   43  A    between atoms: _95  and  _98
REMARK   44  A    between atoms: _98  and  _99
REMARK   45  A    between atoms: _102  and  _104
REMARK   46  A    between atoms: _104  and  _105
REMARK   47  A    between atoms: _108  and  _110
REMARK   48  A    between atoms: _110  and  _111
REMARK   49  A    between atoms: _110  and  _113
REMARK   50  A    between atoms: _113  and  _114
REMARK   51  A    between atoms: _117  and  _119
REMARK   52  A    between atoms: _119  and  _120
REMARK   53  A    between atoms: _119  and  _122
REMARK   54  A    between atoms: _122  and  _123
REMARK   55  A    between atoms: _129  and  _131
REMARK   56  A    between atoms: _131  and  _132
REMARK   57  A    between atoms: _135  and  _137
REMARK   58  A    between atoms: _137  and  _138
REMARK   59  A    between atoms: _137  and  _140
REMARK   60  A    between atoms: _140  and  _141
REMARK   61  A    between atoms: _144  and  _146
REMARK   62  A    between atoms: _146  and  _147
REMARK   63  A    between atoms: _146  and  _149
REMARK   64  A    between atoms: _149  and  _150
REMARK   65  A    between atoms: _152  and  _154
REMARK   66  A    between atoms: _154  and  _155
REMARK   67  A    between atoms: _157  and  _159
REMARK   68  A    between atoms: _159  and  _160
REMARK   69  A    between atoms: _162  and  _164
REMARK   70  A    between atoms: _164  and  _165
REMARK   71  A    between atoms: _164  and  _167
REMARK   72  A    between atoms: _167  and  _168
REMARK   73  A    between atoms: _168  and  _169
REMARK   74  A    between atoms: _174  and  _176
REMARK   75  A    between atoms: _176  and  _177
REMARK   76  A    between atoms: _176  and  _179
REMARK   77  A    between atoms: _179  and  _180
REMARK   78  A    between atoms: _183  and  _185
REMARK   79  A    between atoms: _185  and  _186
REMARK   80  A    between atoms: _188  and  _190
REMARK   81  A    between atoms: _190  and  _191
REMARK   82  A    between atoms: _190  and  _193
REMARK   83  A    between atoms: _193  and  _194
REMARK   84  A    between atoms: _197  and  _199
REMARK   85  A    between atoms: _199  and  _200
REMARK   86  A    between atoms: _199  and  _202
REMARK   87  A    between atoms: _202  and  _203
REMARK   88  A    between atoms: _209  and  _211
REMARK   89  A    between atoms: _211  and  _212
REMARK   90  A    between atoms: _211  and  _214
REMARK   91  A    between atoms: _214  and  _215
REMARK   92  A    between atoms: _218  and  _220
REMARK   93  A    between atoms: _220  and  _221
REMARK   94  A    between atoms: _220  and  _223
REMARK   95  A    between atoms: _223  and  _224
REMARK   96  A    between atoms: _230  and  _232
REMARK   97  A    between atoms: _232  and  _233
REMARK   98  A    between atoms: _232  and  _235
REMARK   99  A    between atoms: _235  and  _236
REMARK  100  A    between atoms: _242  and  _244
REMARK  101  A    between atoms: _244  and  _245
REMARK  102  A    between atoms: _244  and  _247
REMARK  103  A    between atoms: _247  and  _248
REMARK  104  A    between atoms: _251  and  _253
REMARK  105  A    between atoms: _253  and  _254
REMARK  106  A    between atoms: _253  and  _256
REMARK  107  A    between atoms: _256  and  _257
REMARK  108  A    between atoms: _260  and  _262
REMARK  109  A    between atoms: _262  and  _263
REMARK  110  A    between atoms: _262  and  _265
REMARK  111  A    between atoms: _265  and  _266
REMARK  112  A    between atoms: _266  and  _267
REMARK  113  A    between atoms: _267  and  _268
REMARK  114  A    between atoms: _277  and  _279
REMARK  115  A    between atoms: _279  and  _280
REMARK  116  A    between atoms: _279  and  _282
REMARK  117  A    between atoms: _282  and  _283
REMARK  118  A    between atoms: _286  and  _288
REMARK  119  A    between atoms: _288  and  _289
REMARK  120  A    between atoms: _288  and  _291
REMARK  121  A    between atoms: _291  and  _292
REMARK  122  A    between atoms: _292  and  _293
REMARK  123  A    between atoms: _298  and  _300
REMARK  124  A    between atoms: _300  and  _301
REMARK  125  A    between atoms: _300  and  _303
REMARK  126  A    between atoms: _303  and  _304
REMARK  127  A    between atoms: _306  and  _308
REMARK  128  A    between atoms: _308  and  _309
REMARK  129  A    between atoms: _311  and  _313
REMARK  130  A    between atoms: _313  and  _314
REMARK  131  A    between atoms: _313  and  _316
REMARK  132  A    between atoms: _316  and  _317
REMARK  133  A    between atoms: _322  and  _324
REMARK  134  A    between atoms: _324  and  _325
REMARK  135  A    between atoms: _327  and  _329
REMARK  136  A    between atoms: _329  and  _330
REMARK  137  A    between atoms: _329  and  _332
REMARK  138  A    between atoms: _332  and  _333
REMARK  139  A    between atoms: _339  and  _341
REMARK  140  A    between atoms: _341  and  _342
REMARK  141  A    between atoms: _341  and  _344
REMARK  142  A    between atoms: _344  and  _345
REMARK  143  A    between atoms: _348  and  _350
REMARK  144  A    between atoms: _350  and  _351
REMARK  145  A    between atoms: _350  and  _353
REMARK  146  A    between atoms: _353  and  _354
REMARK  147  A    between atoms: _354  and  _355
REMARK  148  A    between atoms: _358  and  _360
REMARK  149  A    between atoms: _360  and  _361
REMARK  150  A    between atoms: _360  and  _363
REMARK  151  A    between atoms: _363  and  _364
REMARK  152  A    between atoms: _367  and  _369
REMARK  153  A    between atoms: _369  and  _370
REMARK  154  A    between atoms: _369  and  _372
REMARK  155  A    between atoms: _375  and  _377
REMARK  156  A    between atoms: _377  and  _378
REMARK  157  A    between atoms: _377  and  _380
REMARK  158  A    between atoms: _380  and  _381
REMARK  159  A    between atoms: _384  and  _386
REMARK  160  A    between atoms: _386  and  _387
REMARK  161  A    between atoms: _386  and  _389
REMARK  162  A    between atoms: _389  and  _390
REMARK  163  A    between atoms: _395  and  _397
REMARK  164  A    between atoms: _397  and  _398
REMARK  165  A    between atoms: _400  and  _402
REMARK  166  A    between atoms: _402  and  _403
REMARK  167  A    between atoms: _402  and  _405
REMARK  168  A    between atoms: _405  and  _406
REMARK  169  A    between atoms: _406  and  _407
REMARK  170  A    between atoms: _409  and  _411
REMARK  171  A    between atoms: _411  and  _412
REMARK  172  A    between atoms: _411  and  _414
REMARK  173  A    between atoms: _417  and  _419
REMARK  174  A    between atoms: _419  and  _420
REMARK  175  A    between atoms: _419  and  _422
REMARK  176  A    between atoms: _422  and  _423
REMARK  177  A    between atoms: _425  and  _427
REMARK  178  A    between atoms: _427  and  _428
REMARK  179  A    between atoms: _427  and  _430
REMARK  180  A    between atoms: _430  and  _431
REMARK  181  A    between atoms: _433  and  _435
REMARK  182  A    between atoms: _435  and  _436
REMARK  183  A    between atoms: _435  and  _438
REMARK  184  A    between atoms: _438  and  _439
REMARK  185  A    between atoms: _439  and  _440
REMARK  186  A    between atoms: _445  and  _447
REMARK  187  A    between atoms: _447  and  _448
REMARK  188  A    between atoms: _451  and  _453
REMARK  189  A    between atoms: _453  and  _454
REMARK  190  A    between atoms: _453  and  _456
REMARK  191  A    between atoms: _456  and  _457
REMARK  192  A    between atoms: _457  and  _458
REMARK  193  A    between atoms: _460  and  _462
REMARK  194  A    between atoms: _462  and  _463
REMARK  195  A    between atoms: _462  and  _465
REMARK  196  A    between atoms: _465  and  _466
REMARK  197  A    between atoms: _471  and  _472
REMARK  198  A    between atoms: _474  and  _476
REMARK  199  A    between atoms: _476  and  _477
REMARK  200  A    between atoms: _476  and  _479
REMARK  201  A    between atoms: _479  and  _480
REMARK  202  A    between atoms: _483  and  _485
REMARK  203  A    between atoms: _485  and  _486
REMARK  204  A    between atoms: _485  and  _488
REMARK  205  A    between atoms: _488  and  _489
REMARK  206  A    between atoms: _491  and  _493
REMARK  207  A    between atoms: _493  and  _494
REMARK  208  A    between atoms: _493  and  _496
REMARK  209  A    between atoms: _496  and  _497
REMARK  210  A    between atoms: _500  and  _502
REMARK  211  A    between atoms: _502  and  _503
REMARK  212  A    between atoms: _502  and  _505
REMARK  213  A    between atoms: _505  and  _506
REMARK  214  A    between atoms: _506  and  _507
REMARK  215  A    between atoms: _509  and  _511
REMARK  216  A    between atoms: _511  and  _512
REMARK  217  A    between atoms: _511  and  _514
REMARK  218  A    between atoms: _514  and  _515
REMARK  219  A    between atoms: _520  and  _521
REMARK  220  A    between atoms: _523  and  _525
REMARK  221  A    between atoms: _525  and  _526
REMARK  222  A    between atoms: _525  and  _528
REMARK  223  A    between atoms: _528  and  _529
REMARK  224  A    between atoms: _529  and  _530
REMARK  225  A    between atoms: _530  and  _531
REMARK  226  A    between atoms: _540  and  _542
REMARK  227  A    between atoms: _542  and  _543
REMARK  228  A    between atoms: _542  and  _545
REMARK  229  A    between atoms: _545  and  _546
REMARK  230  A    between atoms: _548  and  _550
REMARK  231  A    between atoms: _550  and  _551
REMARK  232  A    between atoms: _550  and  _553
REMARK  233  A    between atoms: _553  and  _554
REMARK  234  A    between atoms: _559  and  _560
REMARK  235  A    between atoms: _562  and  _564
REMARK  236  A    between atoms: _564  and  _565
REMARK  237  A    between atoms: _568  and  _570
REMARK  238  A    between atoms: _570  and  _571
REMARK  239  A    between atoms: _574  and  _576
REMARK  240  A    between atoms: _576  and  _577
REMARK  241  A    between atoms: _576  and  _579
REMARK  242  A    between atoms: _579  and  _580
REMARK  243  A    between atoms: _580  and  _581
REMARK  244  A    between atoms: _581  and  _582
REMARK  245  A    between atoms: _591  and  _593
REMARK  246  A    between atoms: _593  and  _594
REMARK  247  A    between atoms: _593  and  _596
REMARK  248  A    between atoms: _599  and  _601
REMARK  249  A    between atoms: _601  and  _602
REMARK  250  A    between atoms: _604  and  _606
REMARK  251  A    between atoms: _606  and  _607
REMARK  252  A    between atoms: _606  and  _609
REMARK  253  A    between atoms: _609  and  _610
REMARK  254  A    between atoms: _613  and  _615
REMARK  255  A    between atoms: _615  and  _616
REMARK  256  A    between atoms: _619  and  _621
REMARK  257  A    between atoms: _621  and  _622
REMARK  258  A    between atoms: _621  and  _624
REMARK  259  A    between atoms: _624  and  _625
REMARK  260  A    between atoms: _628  and  _630
REMARK  261  A    between atoms: _630  and  _631
REMARK  262  A    between atoms: _630  and  _633
REMARK  263  A    between atoms: _633  and  _634
REMARK  264  A    between atoms: _639  and  _640
REMARK  265  A    between atoms: _642  and  _644
REMARK  266  A    between atoms: _644  and  _645
REMARK  267  A    between atoms: _644  and  _647
REMARK  268  A    between atoms: _647  and  _648
REMARK  269  A    between atoms: _648  and  _649
REMARK  270  A    between atoms: _651  and  _653
REMARK  271  A    between atoms: _653  and  _654
REMARK  272  A    between atoms: _653  and  _656
REMARK  273  A    between atoms: _656  and  _657
REMARK  274  A    between atoms: _657  and  _658
REMARK  275  A    between atoms: _661  and  _663
REMARK  276  A    between atoms: _663  and  _664
REMARK  277  A    between atoms: _663  and  _666
REMARK  278  A    between atoms: _666  and  _667
REMARK  279  A    between atoms: _673  and  _675
REMARK  280  A    between atoms: _675  and  _676
REMARK  281  A    between atoms: _675  and  _678
REMARK  282  A    between atoms: _678  and  _679
REMARK  283  A    between atoms: _684  and  _686
REMARK  284  A    between atoms: _686  and  _687
REMARK  285  A    between atoms: _686  and  _689
REMARK  286  A    between atoms: _689  and  _690
REMARK  287  A    between atoms: _700  and  _702
REMARK  288  A    between atoms: _702  and  _703
REMARK  289  A    between atoms: _702  and  _705
REMARK  290  A    between atoms: _708  and  _710
REMARK  291  A    between atoms: _710  and  _711
REMARK  292  A    between atoms: _710  and  _713
REMARK  293  A    between atoms: _713  and  _714
REMARK  294  A    between atoms: _717  and  _719
REMARK  295  A    between atoms: _719  and  _720
REMARK  296  A    between atoms: _719  and  _722
REMARK  297  A    between atoms: _722  and  _723
REMARK  298  A    between atoms: _723  and  _724
REMARK  299  A    between atoms: _726  and  _728
REMARK  300  A    between atoms: _728  and  _729
REMARK  301  A    between atoms: _728  and  _731
REMARK  302  A    between atoms: _731  and  _732
REMARK  303  A    between atoms: _735  and  _737
REMARK  304  A    between atoms: _737  and  _738
REMARK  305  A    between atoms: _737  and  _740
REMARK  306  A    between atoms: _740  and  _741
REMARK  307  A    between atoms: _744  and  _746
REMARK  308  A    between atoms: _746  and  _747
REMARK  309  A    between atoms: _746  and  _749
REMARK  310  A    between atoms: _749  and  _750
REMARK  311  A    between atoms: _753  and  _755
REMARK  312  A    between atoms: _755  and  _756
REMARK  313  A    between atoms: _755  and  _758
REMARK  314  A    between atoms: _758  and  _759
REMARK  315  A    between atoms: _762  and  _764
REMARK  316  A    between atoms: _764  and  _765
REMARK  317  A    between atoms: _767  and  _769
REMARK  318  A    between atoms: _769  and  _770
REMARK  319  A    between atoms: _769  and  _772
REMARK  320  A    between atoms: _772  and  _773
REMARK  321  A    between atoms: _775  and  _777
REMARK  322  A    between atoms: _777  and  _778
REMARK  323  A    between atoms: _777  and  _780
REMARK  324  A    between atoms: _780  and  _781
REMARK  325  A    between atoms: _791  and  _793
REMARK  326  A    between atoms: _793  and  _794
REMARK  327  A    between atoms: _793  and  _796
REMARK  328  A    between atoms: _796  and  _797
REMARK  329  A    between atoms: _799  and  _801
REMARK  330  A    between atoms: _801  and  _802
REMARK  331  A    between atoms: _801  and  _804
REMARK  332  A    between atoms: _804  and  _805
REMARK  333  A    between atoms: _808  and  _810
REMARK  334  A    between atoms: _810  and  _811
REMARK  335  A    between atoms: _814  and  _816
REMARK  336  A    between atoms: _816  and  _817
REMARK  337  A    between atoms: _816  and  _819
REMARK  338  A    between atoms: _819  and  _820
REMARK  339  A    between atoms: _822  and  _824
REMARK  340  A    between atoms: _824  and  _825
REMARK  341  A    between atoms: _824  and  _827
REMARK  342  A    between atoms: _827  and  _828
REMARK  343  A    between atoms: _828  and  _829
REMARK  344  A    between atoms: _832  and  _834
REMARK  345  A    between atoms: _834  and  _835
REMARK  346  A    between atoms: _834  and  _837
REMARK  347  A    between atoms: _837  and  _838
REMARK  348  A    between atoms: _840  and  _842
REMARK  349  A    between atoms: _842  and  _843
REMARK  350  A    between atoms: _842  and  _845
REMARK  351  A    between atoms: _845  and  _846
REMARK  352  A    between atoms: _846  and  _847
REMARK  353  A    between atoms: _852  and  _854
REMARK  354  A    between atoms: _854  and  _855
REMARK  355  A    between atoms: _854  and  _857
REMARK  356  A    between atoms: _857  and  _858
REMARK  357  A    between atoms: _858  and  _859
REMARK  358  A    between atoms: _864  and  _866
REMARK  359  A    between atoms: _866  and  _867
REMARK  360  A    between atoms: _866  and  _869
REMARK  361  A    between atoms: _869  and  _870
REMARK  362  A    between atoms: _873  and  _875
REMARK  363  A    between atoms: _875  and  _876
REMARK  364  A    between atoms: _875  and  _878
REMARK  365  A    between atoms: _878  and  _879
REMARK  366  A    between atoms: _882  and  _884
REMARK  367  A    between atoms: _884  and  _885
REMARK  368  A    between atoms: _884  and  _887
REMARK  369  A    between atoms: _887  and  _888
REMARK  370  A    between atoms: _895  and  _896
REMARK  371  A    between atoms: _901  and  _903
REMARK  372  A    between atoms: _903  and  _904
REMARK  373  A    between atoms: _903  and  _906
REMARK  374  A    between atoms: _906  and  _907
REMARK  375  A    between atoms: _912  and  _913
REMARK  376  A    between atoms: _915  and  _917
REMARK  377  A    between atoms: _917  and  _918
REMARK  378  A    between atoms: _917  and  _920
REMARK  379  A    between atoms: _920  and  _921
REMARK  380  A    between atoms: _926  and  _928
REMARK  381  A    between atoms: _928  and  _929
REMARK  382  A    between atoms: _928  and  _931
REMARK  383  A    between atoms: _931  and  _932
REMARK  384  A    between atoms: _938  and  _940
REMARK  385  A    between atoms: _940  and  _941
REMARK  386  A    between atoms: _940  and  _943
REMARK  387  A    between atoms: _943  and  _944
REMARK  388  A    between atoms: _947  and  _949
REMARK  389  A    between atoms: _949  and  _950
REMARK  390  A    between atoms: _949  and  _952
REMARK  391  A    between atoms: _952  and  _953
REMARK  392  A    between atoms: _958  and  _960
REMARK  393  A    between atoms: _960  and  _961
REMARK  394  A    between atoms: _960  and  _963
REMARK  395  A    between atoms: _963  and  _964
REMARK  396  A    between atoms: _970  and  _972
REMARK  397  A    between atoms: _972  and  _973
REMARK  398  A    between atoms: _972  and  _975
REMARK  399  A    between atoms: _975  and  _976
REMARK  400  A    between atoms: _976  and  _977
REMARK  401  A    between atoms: _979  and  _981
REMARK  402  A    between atoms: _981  and  _982
REMARK  403  A    between atoms: _981  and  _984
REMARK  404  A    between atoms: _984  and  _985
REMARK  405  A    between atoms: _988  and  _990
REMARK  406  A    between atoms: _990  and  _991
REMARK  407  A    between atoms: _990  and  _993
REMARK  408  A    between atoms: _993  and  _994
REMARK  409  A    between atoms: _999  and  _1001
REMARK  410  A    between atoms: _1001  and  _1002
REMARK  411  A    between atoms: _1001  and  _1004
REMARK  412  A    between atoms: _1004  and  _1005
REMARK  413  A    between atoms: _1010  and  _1011
REMARK                            x       y       z     vdW  Elec       q    Type
REMARK                         _______ _______ _______ _____ _____    ______ ____
ROOT
ATOM      1  CA  THR A   2      -1.637  -9.937  11.608  0.00  0.00    +0.176 C 
ENDROOT
BRANCH   1   3
ATOM      2  C   MET A   1      -1.957 -12.151  10.530  0.00  0.00    +0.238 C 
ATOM      3  N   THR A   2      -1.542 -11.391  11.550  0.00  0.00    -0.295 N 
ATOM      4  H   THR A   2      -1.118 -11.876  12.366  0.00  0.00    +0.150 HD
ATOM      5  O   MET A   1      -2.413 -11.722   9.470  0.00  0.00    -0.274 OA
BRANCH   2   6
ATOM      6  CA  MET A   1      -1.800 -13.655  10.749  0.00  0.00    +0.146 C 
BRANCH   6   7
ATOM      7  N   MET A   1      -0.579 -14.021  11.470  0.00  0.00    -0.238 NA
ATOM      8  H   MET A   1      -0.580 -13.994  12.510  0.00  0.00    +0.142 HD
ENDBRANCH   6   7
BRANCH   6   9
ATOM      9  CB  MET A   1      -3.040 -14.217  11.459  0.00  0.00    +0.038 C 
BRANCH   9  10
ATOM     10  CG  MET A   1      -3.067 -15.737  11.562  0.00  0.00    +0.060 C 
BRANCH  10  11
ATOM     11  SD  MET A   1      -2.999 -16.559   9.959  0.00  0.00    -0.139 S 
ATOM     12  CE  MET A   1      -2.027 -18.014  10.354  0.00  0.00    +0.069 C 
ENDBRANCH  10  11
ENDBRANCH   9  10
ENDBRANCH   6   9
ENDBRANCH   2   6
ENDBRANCH   1   3
BRANCH   1  13
ATOM     13  C   THR A   2      -0.478  -9.168  10.988  0.00  0.00    +0.243 C 
ATOM     14  N   THR A   3       0.684  -9.787  10.862  0.00  0.00    -0.296 N 
ATOM     15  H   THR A   3       0.758 -10.788  11.136  0.00  0.00    +0.150 HD
ATOM     16  O   THR A   2      -0.640  -8.020  10.642  0.00  0.00    -0.273 OA
BRANCH  14  17
ATOM     17  CA  THR A   3       1.858  -9.103  10.351  0.00  0.00    +0.164 C 
BRANCH  17  18
ATOM     18  CB  THR A   3       3.109  -9.694  10.925  0.00  0.00    +0.136 C 
ATOM     19  CG2 THR A   3       4.326  -9.072  10.281  0.00  0.00    +0.034 C 
BRANCH  18  20
ATOM     20  OG1 THR A   3       3.142  -9.435  12.325  0.00  0.00    -0.382 OA
ATOM     21  HG1 THR A   3       2.350  -9.846  12.754  0.00  0.00    +0.210 HD
ENDBRANCH  18  20
ENDBRANCH  17  18
BRANCH  17  22
ATOM     22  C   THR A   3       1.976  -9.149   8.838  0.00  0.00    +0.229 C 
ATOM     23  O   THR A   3       1.932 -10.212   8.242  0.00  0.00    -0.286 OA
ENDBRANCH  17  22
ENDBRANCH  14  17
ENDBRANCH   1  13
BRANCH   1  24
ATOM     24  CB  THR A   2      -1.806  -9.395  13.058  0.00  0.00    +0.137 C 
ATOM     25  CG2 THR A   2      -3.129  -9.774  13.647  0.00  0.00    +0.034 C 
BRANCH  24  26
ATOM     26  OG1 THR A   2      -0.759  -9.878  13.903  0.00  0.00    -0.382 OA
ATOM     27  HG1 THR A   2      -0.785 -10.867  13.926  0.00  0.00    +0.210 HD
ENDBRANCH  24  26
ENDBRANCH   1  24
TORSDOF 13
REMARK  Name = ../refined-set-2016/3drg/3drg_pocket.pdb
REMARK  413 active torsions:
REMARK  status: ('A' for Active; 'I' for Inactive)
REMARK    1  A    between atoms: _1  and  _3
REMARK    2  A    between atoms: _3  and  _4
REMARK    3  A    between atoms: _3  and  _6
REMARK    4  A    between atoms: _6  and  _7
REMARK    5  A    between atoms: _12  and  _13
REMARK    6  A    between atoms: _15  and  _17
REMARK    7  A    between atoms: _17  and  _18
REMARK    8  A    between atoms: _17  and  _20
REMARK    9  A    between atoms: _20  and  _21
REMARK   10  A    between atoms: _21  and  _22
REMARK   11  A    between atoms: _27  and  _29
REMARK   12  A    between atoms: _29  and  _30
REMARK   13  A    between atoms: _29  and  _32
REMARK   14  A    between atoms: _32  and  _33
REMARK   15  A    between atoms: _35  and  _37
REMARK   16  A    between atoms: _37  and  _38
REMARK   17  A    between atoms: _37  and  _40
REMARK   18  A    between atoms: _40  and  _41
REMARK   19  A    between atoms: _44  and  _46
REMARK   20  A    between atoms: _46  and  _47
REMARK   21  A    between atoms: _46  and  _49
REMARK   22  A    between atoms: _49  and  _50
REMARK   23  A    between atoms: _52  and  _54
REMARK   24  A    between atoms: _54  and  _55
REMARK   25  A    between atoms: _54  and  _57
REMARK   26  A    between atoms: _57  and  _58
REMARK   27  A    between atoms: _61  and  _63
REMARK   28  A    between atoms: _63  and  _64
REMARK   29  A    between atoms: _63  and  _66
REMARK   30  A    between atoms: _66  and  _67
REMARK   31  A    between atoms: _69  and  _71
REMARK   32  A    between atoms: _71  and  _72
REMARK   33  A    between atoms: _74  and  _76
REMARK   34  A    between atoms: _76  and  _77
REMARK   35  A    between atoms: _76  and  _79
REMARK   36  A    between atoms: _79  and  _80
REMARK   37  A    between atoms: _82  and  _84
REMARK   38  A    between atoms: _84  and  _85
REMARK   39  A    between atoms: _84  and  _87
REMARK   40  A    between atoms: _87  and  _88
REMARK   41  A    between atoms: _93  and  _95
REMARK   42  A    between atoms: _95  and  _96
REMARK   43  A    between atoms: _95  and  _98
REMARK   44  A    between atoms: _98  and  _99
REMARK   45  A    between atoms: _102  and  _104
REMARK   46  A    between atoms: _104  and  _105
REMARK   47  A    between atoms: _108  and  _110
REMARK   48  A    between atoms: _110  and  _111
REMARK   49  A    between atoms: _110  and  _113
REMARK   50  A    between atoms: _113  and  _114
REMARK   51  A    between atoms: _117  and  _119
REMARK   52  A    between atoms: _119  and  _120
REMARK   53  A    between atoms: _119  and  _122
REMARK   54  A    between atoms: _122  and  _123
REMARK   55  A    between atoms: _129  and  _131
REMARK   56  A    between atoms: _131  and  _132
REMARK   57  A    between atoms: _135  and  _137
REMARK   58  A    between atoms: _137  and  _138
REMARK   59  A    between atoms: _137  and  _140
REMARK   60  A    between atoms: _140  and  _141
REMARK   61  A    between atoms: _144  and  _146
REMARK   62  A    between atoms: _146  and  _147
REMARK   63  A    between atoms: _146  and  _149
REMARK   64  A    between atoms: _149  and  _150
REMARK   65  A    between atoms: _152  and  _154
REMARK   66  A    between atoms: _154  and  _155
REMARK   67  A    between atoms: _157  and  _159
REMARK   68  A    between atoms: _159  and  _160
REMARK   69  A    between atoms: _162  and  _164
REMARK   70  A    between atoms: _164  and  _165
REMARK   71  A    between atoms: _164  and  _167
REMARK   72  A    between atoms: _167  and  _168
REMARK   73  A    between atoms: _168  and  _169
REMARK   74  A    between atoms: _174  and  _176
REMARK   75  A    between atoms: _176  and  _177
REMARK   76  A    between atoms: _176  and  _179
REMARK   77  A    between atoms: _179  and  _180
REMARK   78  A    between atoms: _183  and  _185
REMARK   79  A    between atoms: _185  and  _186
REMARK   80  A    between atoms: _188  and  _190
REMARK   81  A    between atoms: _190  and  _191
REMARK   82  A    between atoms: _190  and  _193
REMARK   83  A    between atoms: _193  and  _194
REMARK   84  A    between atoms: _197  and  _199
REMARK   85  A    between atoms: _199  and  _200
REMARK   86  A    between atoms: _199  and  _202
REMARK   87  A    between atoms: _202  and  _203
REMARK   88  A    between atoms: _209  and  _211
REMARK   89  A    between atoms: _211  and  _212
REMARK   90  A    between atoms: _211  and  _214
REMARK   91  A    between atoms: _214  and  _215
REMARK   92  A    between atoms: _218  and  _220
REMARK   93  A    between atoms: _220  and  _221
REMARK   94  A    between atoms: _220  and  _223
REMARK   95  A    between atoms: _223  and  _224
REMARK   96  A    between atoms: _230  and  _232
REMARK   97  A    between atoms: _232  and  _233
REMARK   98  A    between atoms: _232  and  _235
REMARK   99  A    between atoms: _235  and  _236
REMARK  100  A    between atoms: _242  and  _244
REMARK  101  A    between atoms: _244  and  _245
REMARK  102  A    between atoms: _244  and  _247
REMARK  103  A    between atoms: _247  and  _248
REMARK  104  A    between atoms: _251  and  _253
REMARK  105  A    between atoms: _253  and  _254
REMARK  106  A    between atoms: _253  and  _256
REMARK  107  A    between atoms: _256  and  _257
REMARK  108  A    between atoms: _260  and  _262
REMARK  109  A    between atoms: _262  and  _263
REMARK  110  A    between atoms: _262  and  _265
REMARK  111  A    between atoms: _265  and  _266
REMARK  112  A    between atoms: _266  and  _267
REMARK  113  A    between atoms: _267  and  _268
REMARK  114  A    between atoms: _277  and  _279
REMARK  115  A    between atoms: _279  and  _280
REMARK  116  A    between atoms: _279  and  _282
REMARK  117  A    between atoms: _282  and  _283
REMARK  118  A    between atoms: _286  and  _288
REMARK  119  A    between atoms: _288  and  _289
REMARK  120  A    between atoms: _288  and  _291
REMARK  121  A    between atoms: _291  and  _292
REMARK  122  A    between atoms: _292  and  _293
REMARK  123  A    between atoms: _298  and  _300
REMARK  124  A    between atoms: _300  and  _301
REMARK  125  A    between atoms: _300  and  _303
REMARK  126  A    between atoms: _303  and  _304
REMARK  127  A    between atoms: _306  and  _308
REMARK  128  A    between atoms: _308  and  _309
REMARK  129  A    between atoms: _311  and  _313
REMARK  130  A    between atoms: _313  and  _314
REMARK  131  A    between atoms: _313  and  _316
REMARK  132  A    between atoms: _316  and  _317
REMARK  133  A    between atoms: _322  and  _324
REMARK  134  A    between atoms: _324  and  _325
REMARK  135  A    between atoms: _327  and  _329
REMARK  136  A    between atoms: _329  and  _330
REMARK  137  A    between atoms: _329  and  _332
REMARK  138  A    between atoms: _332  and  _333
REMARK  139  A    between atoms: _339  and  _341
REMARK  140  A    between atoms: _341  and  _342
REMARK  141  A    between atoms: _341  and  _344
REMARK  142  A    between atoms: _344  and  _345
REMARK  143  A    between atoms: _348  and  _350
REMARK  144  A    between atoms: _350  and  _351
REMARK  145  A    between atoms: _350  and  _353
REMARK  146  A    between atoms: _353  and  _354
REMARK  147  A    between atoms: _354  and  _355
REMARK  148  A    between atoms: _358  and  _360
REMARK  149  A    between atoms: _360  and  _361
REMARK  150  A    between atoms: _360  and  _363
REMARK  151  A    between atoms: _363  and  _364
REMARK  152  A    between atoms: _367  and  _369
REMARK  153  A    between atoms: _369  and  _370
REMARK  154  A    between atoms: _369  and  _372
REMARK  155  A    between atoms: _375  and  _377
REMARK  156  A    between atoms: _377  and  _378
REMARK  157  A    between atoms: _377  and  _380
REMARK  158  A    between atoms: _380  and  _381
REMARK  159  A    between atoms: _384  and  _386
REMARK  160  A    between atoms: _386  and  _387
REMARK  161  A    between atoms: _386  and  _389
REMARK  162  A    between atoms: _389  and  _390
REMARK  163  A    between atoms: _395  and  _397
REMARK  164  A    between atoms: _397  and  _398
REMARK  165  A    between atoms: _400  and  _402
REMARK  166  A    between atoms: _402  and  _403
REMARK  167  A    between atoms: _402  and  _405
REMARK  168  A    between atoms: _405  and  _406
REMARK  169  A    between atoms: _406  and  _407
REMARK  170  A    between atoms: _409  and  _411
REMARK  171  A    between atoms: _411  and  _412
REMARK  172  A    between atoms: _411  and  _414
REMARK  173  A    between atoms: _417  and  _419
REMARK  174  A    between atoms: _419  and  _420
REMARK  175  A    between atoms: _419  and  _422
REMARK  176  A    between atoms: _422  and  _423
REMARK  177  A    between atoms: _425  and  _427
REMARK  178  A    between atoms: _427  and  _428
REMARK  179  A    between atoms: _427  and  _430
REMARK  180  A    between atoms: _430  and  _431
REMARK  181  A    between atoms: _433  and  _435
REMARK  182  A    between atoms: _435  and  _436
REMARK  183  A    between atoms: _435  and  _438
REMARK  184  A    between atoms: _438  and  _439
REMARK  185  A    between atoms: _439  and  _440
REMARK  186  A    between atoms: _445  and  _447
REMARK  187  A    between atoms: _447  and  _448
REMARK  188  A    between atoms: _451  and  _453
REMARK  189  A    between atoms: _453  and  _454
REMARK  190  A    between atoms: _453  and  _456
REMARK  191  A    between atoms: _456  and  _457
REMARK  192  A    between atoms: _457  and  _458
REMARK  193  A    between atoms: _460  and  _462
REMARK  194  A    between atoms: _462  and  _463
REMARK  195  A    between atoms: _462  and  _465
REMARK  196  A    between atoms: _465  and  _466
REMARK  197  A    between atoms: _471  and  _472
REMARK  198  A    between atoms: _474  and  _476
REMARK  199  A    between atoms: _476  and  _477
REMARK  200  A    between atoms: _476  and  _479
REMARK  201  A    between atoms: _479  and  _480
REMARK  202  A    between atoms: _483  and  _485
REMARK  203  A    between atoms: _485  and  _486
REMARK  204  A    between atoms: _485  and  _488
REMARK  205  A    between atoms: _488  and  _489
REMARK  206  A    between atoms: _491  and  _493
REMARK  207  A    between atoms: _493  and  _494
REMARK  208  A    between atoms: _493  and  _496
REMARK  209  A    between atoms: _496  and  _497
REMARK  210  A    between atoms: _500  and  _502
REMARK  211  A    between atoms: _502  and  _503
REMARK  212  A    between atoms: _502  and  _505
REMARK  213  A    between atoms: _505  and  _506
REMARK  214  A    between atoms: _506  and  _507
REMARK  215  A    between atoms: _509  and  _511
REMARK  216  A    between atoms: _511  and  _512
REMARK  217  A    between atoms: _511  and  _514
REMARK  218  A    between atoms: _514  and  _515
REMARK  219  A    between atoms: _520  and  _521
REMARK  220  A    between atoms: _523  and  _525
REMARK  221  A    between atoms: _525  and  _526
REMARK  222  A    between atoms: _525  and  _528
REMARK  223  A    between atoms: _528  and  _529
REMARK  224  A    between atoms: _529  and  _530
REMARK  225  A    between atoms: _530  and  _531
REMARK  226  A    between atoms: _540  and  _542
REMARK  227  A    between atoms: _542  and  _543
REMARK  228  A    between atoms: _542  and  _545
REMARK  229  A    between atoms: _545  and  _546
REMARK  230  A    between atoms: _548  and  _550
REMARK  231  A    between atoms: _550  and  _551
REMARK  232  A    between atoms: _550  and  _553
REMARK  233  A    between atoms: _553  and  _554
REMARK  234  A    between atoms: _559  and  _560
REMARK  235  A    between atoms: _562  and  _564
REMARK  236  A    between atoms: _564  and  _565
REMARK  237  A    between atoms: _568  and  _570
REMARK  238  A    between atoms: _570  and  _571
REMARK  239  A    between atoms: _574  and  _576
REMARK  240  A    between atoms: _576  and  _577
REMARK  241  A    between atoms: _576  and  _579
REMARK  242  A    between atoms: _579  and  _580
REMARK  243  A    between atoms: _580  and  _581
REMARK  244  A    between atoms: _581  and  _582
REMARK  245  A    between atoms: _591  and  _593
REMARK  246  A    between atoms: _593  and  _594
REMARK  247  A    between atoms: _593  and  _596
REMARK  248  A    between atoms: _599  and  _601
REMARK  249  A    between atoms: _601  and  _602
REMARK  250  A    between atoms: _604  and  _606
REMARK  251  A    between atoms: _606  and  _607
REMARK  252  A    between atoms: _606  and  _609
REMARK  253  A    between atoms: _609  and  _610
REMARK  254  A    between atoms: _613  and  _615
REMARK  255  A    between atoms: _615  and  _616
REMARK  256  A    between atoms: _619  and  _621
REMARK  257  A    between atoms: _621  and  _622
REMARK  258  A    between atoms: _621  and  _624
REMARK  259  A    between atoms: _624  and  _625
REMARK  260  A    between atoms: _628  and  _630
REMARK  261  A    between atoms: _630  and  _631
REMARK  262  A    between atoms: _630  and  _633
REMARK  263  A    between atoms: _633  and  _634
REMARK  264  A    between atoms: _639  and  _640
REMARK  265  A    between atoms: _642  and  _644
REMARK  266  A    between atoms: _644  and  _645
REMARK  267  A    between atoms: _644  and  _647
REMARK  268  A    between atoms: _647  and  _648
REMARK  269  A    between atoms: _648  and  _649
REMARK  270  A    between atoms: _651  and  _653
REMARK  271  A    between atoms: _653  and  _654
REMARK  272  A    between atoms: _653  and  _656
REMARK  273  A    between atoms: _656  and  _657
REMARK  274  A    between atoms: _657  and  _658
REMARK  275  A    between atoms: _661  and  _663
REMARK  276  A    between atoms: _663  and  _664
REMARK  277  A    between atoms: _663  and  _666
REMARK  278  A    between atoms: _666  and  _667
REMARK  279  A    between atoms: _673  and  _675
REMARK  280  A    between atoms: _675  and  _676
REMARK  281  A    between atoms: _675  and  _678
REMARK  282  A    between atoms: _678  and  _679
REMARK  283  A    between atoms: _684  and  _686
REMARK  284  A    between atoms: _686  and  _687
REMARK  285  A    between atoms: _686  and  _689
REMARK  286  A    between atoms: _689  and  _690
REMARK  287  A    between atoms: _700  and  _702
REMARK  288  A    between atoms: _702  and  _703
REMARK  289  A    between atoms: _702  and  _705
REMARK  290  A    between atoms: _708  and  _710
REMARK  291  A    between atoms: _710  and  _711
REMARK  292  A    between atoms: _710  and  _713
REMARK  293  A    between atoms: _713  and  _714
REMARK  294  A    between atoms: _717  and  _719
REMARK  295  A    between atoms: _719  and  _720
REMARK  296  A    between atoms: _719  and  _722
REMARK  297  A    between atoms: _722  and  _723
REMARK  298  A    between atoms: _723  and  _724
REMARK  299  A    between atoms: _726  and  _728
REMARK  300  A    between atoms: _728  and  _729
REMARK  301  A    between atoms: _728  and  _731
REMARK  302  A    between atoms: _731  and  _732
REMARK  303  A    between atoms: _735  and  _737
REMARK  304  A    between atoms: _737  and  _738
REMARK  305  A    between atoms: _737  and  _740
REMARK  306  A    between atoms: _740  and  _741
REMARK  307  A    between atoms: _744  and  _746
REMARK  308  A    between atoms: _746  and  _747
REMARK  309  A    between atoms: _746  and  _749
REMARK  310  A    between atoms: _749  and  _750
REMARK  311  A    between atoms: _753  and  _755
REMARK  312  A    between atoms: _755  and  _756
REMARK  313  A    between atoms: _755  and  _758
REMARK  314  A    between atoms: _758  and  _759
REMARK  315  A    between atoms: _762  and  _764
REMARK  316  A    between atoms: _764  and  _765
REMARK  317  A    between atoms: _767  and  _769
REMARK  318  A    between atoms: _769  and  _770
REMARK  319  A    between atoms: _769  and  _772
REMARK  320  A    between atoms: _772  and  _773
REMARK  321  A    between atoms: _775  and  _777
REMARK  322  A    between atoms: _777  and  _778
REMARK  323  A    between atoms: _777  and  _780
REMARK  324  A    between atoms: _780  and  _781
REMARK  325  A    between atoms: _791  and  _793
REMARK  326  A    between atoms: _793  and  _794
REMARK  327  A    between atoms: _793  and  _796
REMARK  328  A    between atoms: _796  and  _797
REMARK  329  A    between atoms: _799  and  _801
REMARK  330  A    between atoms: _801  and  _802
REMARK  331  A    between atoms: _801  and  _804
REMARK  332  A    between atoms: _804  and  _805
REMARK  333  A    between atoms: _808  and  _810
REMARK  334  A    between atoms: _810  and  _811
REMARK  335  A    between atoms: _814  and  _816
REMARK  336  A    between atoms: _816  and  _817
REMARK  337  A    between atoms: _816  and  _819
REMARK  338  A    between atoms: _819  and  _820
REMARK  339  A    between atoms: _822  and  _824
REMARK  340  A    between atoms: _824  and  _825
REMARK  341  A    between atoms: _824  and  _827
REMARK  342  A    between atoms: _827  and  _828
REMARK  343  A    between atoms: _828  and  _829
REMARK  344  A    between atoms: _832  and  _834
REMARK  345  A    between atoms: _834  and  _835
REMARK  346  A    between atoms: _834  and  _837
REMARK  347  A    between atoms: _837  and  _838
REMARK  348  A    between atoms: _840  and  _842
REMARK  349  A    between atoms: _842  and  _843
REMARK  350  A    between atoms: _842  and  _845
REMARK  351  A    between atoms: _845  and  _846
REMARK  352  A    between atoms: _846  and  _847
REMARK  353  A    between atoms: _852  and  _854
REMARK  354  A    between atoms: _854  and  _855
REMARK  355  A    between atoms: _854  and  _857
REMARK  356  A    between atoms: _857  and  _858
REMARK  357  A    between atoms: _858  and  _859
REMARK  358  A    between atoms: _864  and  _866
REMARK  359  A    between atoms: _866  and  _867
REMARK  360  A    between atoms: _866  and  _869
REMARK  361  A    between atoms: _869  and  _870
REMARK  362  A    between atoms: _873  and  _875
REMARK  363  A    between atoms: _875  and  _876
REMARK  364  A    between atoms: _875  and  _878
REMARK  365  A    between atoms: _878  and  _879
REMARK  366  A    between atoms: _882  and  _884
REMARK  367  A    between atoms: _884  and  _885
REMARK  368  A    between atoms: _884  and  _887
REMARK  369  A    between atoms: _887  and  _888
REMARK  370  A    between atoms: _895  and  _896
REMARK  371  A    between atoms: _901  and  _903
REMARK  372  A    between atoms: _903  and  _904
REMARK  373  A    between atoms: _903  and  _906
REMARK  374  A    between atoms: _906  and  _907
REMARK  375  A    between atoms: _912  and  _913
REMARK  376  A    between atoms: _915  and  _917
REMARK  377  A    between atoms: _917  and  _918
REMARK  378  A    between atoms: _917  and  _920
REMARK  379  A    between atoms: _920  and  _921
REMARK  380  A    between atoms: _926  and  _928
REMARK  381  A    between atoms: _928  and  _929
REMARK  382  A    between atoms: _928  and  _931
REMARK  383  A    between atoms: _931  and  _932
REMARK  384  A    between atoms: _938  and  _940
REMARK  385  A    between atoms: _940  and  _941
REMARK  386  A    between atoms: _940  and  _943
REMARK  387  A    between atoms: _943  and  _944
REMARK  388  A    between atoms: _947  and  _949
REMARK  389  A    between atoms: _949  and  _950
REMARK  390  A    between atoms: _949  and  _952
REMARK  391  A    between atoms: _952  and  _953
REMARK  392  A    between atoms: _958  and  _960
REMARK  393  A    between atoms: _960  and  _961
REMARK  394  A    between atoms: _960  and  _963
REMARK  395  A    between atoms: _963  and  _964
REMARK  396  A    between atoms: _970  and  _972
REMARK  397  A    between atoms: _972  and  _973
REMARK  398  A    between atoms: _972  and  _975
REMARK  399  A    between atoms: _975  and  _976
REMARK  400  A    between atoms: _976  and  _977
REMARK  401  A    between atoms: _979  and  _981
REMARK  402  A    between atoms: _981  and  _982
REMARK  403  A    between atoms: _981  and  _984
REMARK  404  A    between atoms: _984  and  _985
REMARK  405  A    between atoms: _988  and  _990
REMARK  406  A    between atoms: _990  and  _991
REMARK  407  A    between atoms: _990  and  _993
REMARK  408  A    between atoms: _993  and  _994
REMARK  409  A    between atoms: _999  and  _1001
REMARK  410  A    between atoms: _1001  and  _1002
REMARK  411  A    between atoms: _1001  and  _1004
REMARK  412  A    between atoms: _1004  and  _1005
REMARK  413  A    between atoms: _1010  and  _1011
REMARK                            x       y       z     vdW  Elec       q    Type
REMARK                         _______ _______ _______ _____ _____    ______ ____
ROOT
ATOM      1  CA  TRP A   5     -13.032 -13.961  18.173  0.00  0.00    +0.153 C 
ENDROOT
BRANCH   1   2
ATOM      2  C   TRP A   5     -13.761 -13.702  19.483  0.00  0.00    +0.241 C 
ATOM      3  N   SER A   6     -13.212 -12.788  20.280  0.00  0.00    -0.295 N 
ATOM      4  H   SER A   6     -12.195 -12.589  20.196  0.00  0.00    +0.150 HD
ATOM      5  O   TRP A   5     -14.788 -14.320  19.764  0.00  0.00    -0.273 OA
BRANCH   3   6
ATOM      6  CA  SER A   6     -13.998 -12.058  21.267  0.00  0.00    +0.178 C 
BRANCH   6   7
ATOM      7  C   SER A   6     -14.532 -10.838  20.527  0.00  0.00    +0.243 C 
ATOM      8  O   SER A   6     -13.870  -9.798  20.471  0.00  0.00    -0.273 OA
ATOM      9  N   LEU A   7     -15.717 -10.985  19.939  0.00  0.00    -0.297 N 
ATOM     10  H   LEU A   7     -16.261 -11.853  20.121  0.00  0.00    +0.150 HD
BRANCH   9  11
ATOM     11  CA  LEU A   7     -16.286  -9.973  19.045  0.00  0.00    +0.149 C 
BRANCH  11  12
ATOM     12  C   LEU A   7     -16.551  -8.636  19.722  0.00  0.00    +0.241 C 
ATOM     13  O   LEU A   7     -16.699  -8.561  20.948  0.00  0.00    -0.273 OA
ATOM     14  N   ALA A   8     -16.614  -7.585  18.904  0.00  0.00    -0.297 N 
ATOM     15  H   ALA A   8     -16.384  -7.719  17.899  0.00  0.00    +0.150 HD
BRANCH  14  16
ATOM     16  CA  ALA A   8     -16.993  -6.255  19.364  0.00  0.00    +0.149 C 
ATOM     17  CB  ALA A   8     -16.926  -5.253  18.219  0.00  0.00    +0.031 C 
BRANCH  16  18
ATOM     18  C   ALA A   8     -18.393  -6.287  19.961  0.00  0.00    +0.241 C 
ATOM     19  N   SER A   9     -18.620  -5.440  20.962  0.00  0.00    -0.295 N 
ATOM     20  H   SER A   9     -17.855  -4.803  21.264  0.00  0.00    +0.150 HD
ATOM     21  O   ALA A   8     -19.246  -7.066  19.523  0.00  0.00    -0.273 OA
BRANCH  19  22
ATOM     22  CA  SER A   9     -19.909  -5.373  21.653  0.00  0.00    +0.178 C 
BRANCH  22  23
ATOM     23  C   SER A   9     -21.037  -4.768  20.800  0.00  0.00    +0.243 C 
ATOM     24  O   SER A   9     -22.165  -4.615  21.271  0.00  0.00    -0.273 OA
ATOM     25  N   GLU A  10     -20.717  -4.446  19.547  0.00  0.00    -0.298 N 
ATOM     26  H   GLU A  10     -19.726  -4.548  19.250  0.00  0.00    +0.150 HD
BRANCH  25  27
ATOM     27  CA  GLU A  10     -21.687  -3.956  18.567  0.00  0.00    +0.137 C 
BRANCH  27  28
ATOM     28  C   GLU A  10     -21.702  -4.905  17.361  0.00  0.00    +0.227 C 
ATOM     29  O   GLU A  10     -20.639  -5.254  16.841  0.00  0.00    -0.286 OA
ENDBRANCH  27  28
BRANCH  27  30
ATOM     30  CB  GLU A  10     -21.323  -2.530  18.135  0.00  0.00    +0.039 C 
BRANCH  30  31
ATOM     31  CG  GLU A  10     -22.512  -1.623  17.805  0.00  0.00    +0.116 C 
BRANCH  31  32
ATOM     32  CD  GLU A  10     -23.108  -1.876  16.428  0.00  0.00    +0.365 C 
ATOM     33  OE2 GLU A  10     -24.336  -1.712  16.274  0.00  0.00    -0.246 OA
ATOM     34  OE1 GLU A  10     -22.358  -2.234  15.498  0.00  0.00    -0.246 OA
ENDBRANCH  31  32
ENDBRANCH  30  31
ENDBRANCH  27  30
ENDBRANCH  25  27
ENDBRANCH  22  23
BRANCH  22  35
ATOM     35  CB  SER A   9     -19.766  -4.640  22.993  0.00  0.00    +0.166 C 
BRANCH  35  36
ATOM     36  OG  SER A   9     -18.971  -3.475  22.870  0.00  0.00    -0.380 OA
ATOM     37  H   SER A   9     -19.391  -2.858  22.220  0.00  0.00    +0.211 HD
ENDBRANCH  35  36
ENDBRANCH  22  35
ENDBRANCH  19  22
ENDBRANCH  16  18
ENDBRANCH  14  16
ENDBRANCH  11  12
BRANCH  11  38
ATOM     38  CB  LEU A   7     -17.587 -10.479  18.416  0.00  0.00    +0.029 C 
BRANCH  38  39
ATOM     39  CG  LEU A   7     -17.558 -11.684  17.477  0.00  0.00    +0.002 C 
ATOM     40  CD2 LEU A   7     -18.972 -12.117  17.197  0.00  0.00    +0.000 C 
ATOM     41  CD1 LEU A   7     -16.838 -11.369  16.181  0.00  0.00    +0.000 C 
ENDBRANCH  38  39
ENDBRANCH  11  38
ENDBRANCH   9  11
ENDBRANCH   6   7
BRANCH   6  42
ATOM     42  CB  SER A   6     -13.144 -11.626  22.461  0.00  0.00    +0.166 C 
BRANCH  42  43
ATOM     43  OG  SER A   6     -13.040 -12.657  23.428  0.00  0.00    -0.380 OA
ATOM     44  H   SER A   6     -12.483 -12.344  24.184  0.00  0.00    +0.211 HD
ENDBRANCH  42  43
ENDBRANCH   6  42
ENDBRANCH   3   6
ENDBRANCH   1   2
BRANCH   1  47
ATOM     45  C   SER A   4     -11.706 -15.944  17.654  0.00  0.00    +0.243 C 
ATOM     46  O   SER A   4     -10.642 -15.364  17.886  0.00  0.00    -0.273 OA
ATOM     47  N   TRP A   5     -12.897 -15.376  17.829  0.00  0.00    -0.297 N 
ATOM     48  H   TRP A   5     -13.755 -15.954  17.718  0.00  0.00    +0.150 HD
BRANCH  45  49
ATOM     49  CA  SER A   4     -11.713 -17.378  17.135  0.00  0.00    +0.178 C 
BRANCH  49  51
ATOM     50  C   GLY A   3     -11.193 -17.882  14.808  0.00  0.00    +0.243 C 
ATOM     51  N   SER A   4     -10.794 -17.486  16.011  0.00  0.00    -0.295 N 
ATOM     52  H   SER A   4      -9.793 -17.245  16.155  0.00  0.00    +0.150 HD
ATOM     53  O   GLY A   3     -12.328 -18.298  14.575  0.00  0.00    -0.273 OA
BRANCH  50  54
ATOM     54  CA  GLY A   3     -10.154 -17.819  13.711  0.00  0.00    +0.176 C 
BRANCH  54  57
ATOM     55  C   ASP A   2      -9.166 -19.965  13.129  0.00  0.00    +0.241 C 
ATOM     56  O   ASP A   2      -8.219 -19.803  13.898  0.00  0.00    -0.273 OA
ATOM     57  N   GLY A   3     -10.123 -19.061  12.953  0.00  0.00    -0.295 N 
ATOM     58  H   GLY A   3     -10.871 -19.246  12.254  0.00  0.00    +0.150 HD
BRANCH  55  59
ATOM     59  CA  ASP A   2      -9.295 -21.237  12.308  0.00  0.00    +0.160 C 
BRANCH  59  61
ATOM     60  C   THR A   1      -8.160 -21.462  10.164  0.00  0.00    +0.241 C 
ATOM     61  N   ASP A   2      -8.106 -21.468  11.494  0.00  0.00    -0.297 N 
ATOM     62  H   ASP A   2      -7.195 -21.641  11.964  0.00  0.00    +0.150 HD
ATOM     63  O   THR A   1      -9.212 -21.307   9.539  0.00  0.00    -0.274 OA
BRANCH  60  64
ATOM     64  CA  THR A   1      -6.834 -21.672   9.420  0.00  0.00    +0.172 C 
BRANCH  64  65
ATOM     65  N   THR A   1      -7.060 -21.830   7.983  0.00  0.00    -0.236 NA
ATOM     66  H   THR A   1      -7.775 -21.236   7.517  0.00  0.00    +0.142 HD
ENDBRANCH  64  65
BRANCH  64  67
ATOM     67  CB  THR A   1      -5.824 -20.534   9.734  0.00  0.00    +0.135 C 
ATOM     68  CG2 THR A   1      -6.468 -19.158   9.593  0.00  0.00    +0.034 C 
BRANCH  67  69
ATOM     69  OG1 THR A   1      -5.326 -20.689  11.067  0.00  0.00    -0.383 OA
ATOM     70  HG1 THR A   1      -4.872 -21.565  11.149  0.00  0.00    +0.210 HD
ENDBRANCH  67  69
ENDBRANCH  64  67
ENDBRANCH  60  64
ENDBRANCH  59  61
BRANCH  59  71
ATOM     71  CB  ASP A   2      -9.565 -22.431  13.223  0.00  0.00    +0.143 C 
BRANCH  71  72
ATOM     72  CG  ASP A   2      -9.871 -23.695  12.455  0.00  0.00    +0.367 C 
ATOM     73  OD2 ASP A   2      -9.363 -24.758  12.855  0.00  0.00    -0.246 OA
ATOM     74  OD1 ASP A   2     -10.621 -23.630  11.456  0.00  0.00    -0.246 OA
ENDBRANCH  71  72
ENDBRANCH  59  71
ENDBRANCH  55  59
ENDBRANCH  54  57
ENDBRANCH  50  54
ENDBRANCH  49  51
BRANCH  49  75
ATOM     75  CB  SER A   4     -11.343 -18.372  18.239  0.00  0.00    +0.166 C 
BRANCH  75  76
ATOM     76  OG  SER A   4      -9.956 -18.328  18.531  0.00  0.00    -0.380 OA
ATOM     77  H   SER A   4      -9.712 -17.417  18.833  0.00  0.00    +0.211 HD
ENDBRANCH  75  76
ENDBRANCH  49  75
ENDBRANCH  45  49
ENDBRANCH   1  47
BRANCH   1  78
ATOM     78  CB  TRP A   5     -13.778 -13.216  17.064  0.00  0.00    +0.057 C 
BRANCH  78  79
ATOM     79  CG  TRP A   5     -13.008 -13.043  15.801  0.00  0.00    -0.002 A 
ATOM     80  CD2 TRP A   5     -11.905 -12.156  15.583  0.00  0.00    +0.013 A 
ATOM     81  CE3 TRP A   5     -11.220 -11.238  16.392  0.00  0.00    +0.001 A 
ATOM     82  CZ3 TRP A   5     -10.162 -10.527  15.841  0.00  0.00    +0.000 A 
ATOM     83  CH2 TRP A   5      -9.779 -10.716  14.501  0.00  0.00    +0.001 A 
ATOM     84  CZ2 TRP A   5     -10.430 -11.607  13.689  0.00  0.00    +0.017 A 
ATOM     85  CE2 TRP A   5     -11.496 -12.322  14.242  0.00  0.00    +0.056 A 
ATOM     86  NE1 TRP A   5     -12.315 -13.265  13.677  0.00  0.00    -0.352 N 
ATOM     87  HE1 TRP A   5     -12.260 -13.603  12.695  0.00  0.00    +0.166 HD
ATOM     88  CD1 TRP A   5     -13.219 -13.690  14.619  0.00  0.00    +0.068 A 
ENDBRANCH  78  79
ENDBRANCH   1  78
TORSDOF 37
REMARK  Name = ../refined-set-2016/3drg/3drg_pocket.pdb
REMARK  413 active torsions:
REMARK  status: ('A' for Active; 'I' for Inactive)
REMARK    1  A    between atoms: _1  and  _3
REMARK    2  A    between atoms: _3  and  _4
REMARK    3  A    between atoms: _3  and  _6
REMARK    4  A    between atoms: _6  and  _7
REMARK    5  A    between atoms: _12  and  _13
REMARK    6  A    between atoms: _15  and  _17
REMARK    7  A    between atoms: _17  and  _18
REMARK    8  A    between atoms: _17  and  _20
REMARK    9  A    between atoms: _20  and  _21
REMARK   10  A    between atoms: _21  and  _22
REMARK   11  A    between atoms: _27  and  _29
REMARK   12  A    between atoms: _29  and  _30
REMARK   13  A    between atoms: _29  and  _32
REMARK   14  A    between atoms: _32  and  _33
REMARK   15  A    between atoms: _35  and  _37
REMARK   16  A    between atoms: _37  and  _38
REMARK   17  A    between atoms: _37  and  _40
REMARK   18  A    between atoms: _40  and  _41
REMARK   19  A    between atoms: _44  and  _46
REMARK   20  A    between atoms: _46  and  _47
REMARK   21  A    between atoms: _46  and  _49
REMARK   22  A    between atoms: _49  and  _50
REMARK   23  A    between atoms: _52  and  _54
REMARK   24  A    between atoms: _54  and  _55
REMARK   25  A    between atoms: _54  and  _57
REMARK   26  A    between atoms: _57  and  _58
REMARK   27  A    between atoms: _61  and  _63
REMARK   28  A    between atoms: _63  and  _64
REMARK   29  A    between atoms: _63  and  _66
REMARK   30  A    between atoms: _66  and  _67
REMARK   31  A    between atoms: _69  and  _71
REMARK   32  A    between atoms: _71  and  _72
REMARK   33  A    between atoms: _74  and  _76
REMARK   34  A    between atoms: _76  and  _77
REMARK   35  A    between atoms: _76  and  _79
REMARK   36  A    between atoms: _79  and  _80
REMARK   37  A    between atoms: _82  and  _84
REMARK   38  A    between atoms: _84  and  _85
REMARK   39  A    between atoms: _84  and  _87
REMARK   40  A    between atoms: _87  and  _88
REMARK   41  A    between atoms: _93  and  _95
REMARK   42  A    between atoms: _95  and  _96
REMARK   43  A    between atoms: _95  and  _98
REMARK   44  A    between atoms: _98  and  _99
REMARK   45  A    between atoms: _102  and  _104
REMARK   46  A    between atoms: _104  and  _105
REMARK   47  A    between atoms: _108  and  _110
REMARK   48  A    between atoms: _110  and  _111
REMARK   49  A    between atoms: _110  and  _113
REMARK   50  A    between atoms: _113  and  _114
REMARK   51  A    between atoms: _117  and  _119
REMARK   52  A    between atoms: _119  and  _120
REMARK   53  A    between atoms: _119  and  _122
REMARK   54  A    between atoms: _122  and  _123
REMARK   55  A    between atoms: _129  and  _131
REMARK   56  A    between atoms: _131  and  _132
REMARK   57  A    between atoms: _135  and  _137
REMARK   58  A    between atoms: _137  and  _138
REMARK   59  A    between atoms: _137  and  _140
REMARK   60  A    between atoms: _140  and  _141
REMARK   61  A    between atoms: _144  and  _146
REMARK   62  A    between atoms: _146  and  _147
REMARK   63  A    between atoms: _146  and  _149
REMARK   64  A    between atoms: _149  and  _150
REMARK   65  A    between atoms: _152  and  _154
REMARK   66  A    between atoms: _154  and  _155
REMARK   67  A    between atoms: _157  and  _159
REMARK   68  A    between atoms: _159  and  _160
REMARK   69  A    between atoms: _162  and  _164
REMARK   70  A    between atoms: _164  and  _165
REMARK   71  A    between atoms: _164  and  _167
REMARK   72  A    between atoms: _167  and  _168
REMARK   73  A    between atoms: _168  and  _169
REMARK   74  A    between atoms: _174  and  _176
REMARK   75  A    between atoms: _176  and  _177
REMARK   76  A    between atoms: _176  and  _179
REMARK   77  A    between atoms: _179  and  _180
REMARK   78  A    between atoms: _183  and  _185
REMARK   79  A    between atoms: _185  and  _186
REMARK   80  A    between atoms: _188  and  _190
REMARK   81  A    between atoms: _190  and  _191
REMARK   82  A    between atoms: _190  and  _193
REMARK   83  A    between atoms: _193  and  _194
REMARK   84  A    between atoms: _197  and  _199
REMARK   85  A    between atoms: _199  and  _200
REMARK   86  A    between atoms: _199  and  _202
REMARK   87  A    between atoms: _202  and  _203
REMARK   88  A    between atoms: _209  and  _211
REMARK   89  A    between atoms: _211  and  _212
REMARK   90  A    between atoms: _211  and  _214
REMARK   91  A    between atoms: _214  and  _215
REMARK   92  A    between atoms: _218  and  _220
REMARK   93  A    between atoms: _220  and  _221
REMARK   94  A    between atoms: _220  and  _223
REMARK   95  A    between atoms: _223  and  _224
REMARK   96  A    between atoms: _230  and  _232
REMARK   97  A    between atoms: _232  and  _233
REMARK   98  A    between atoms: _232  and  _235
REMARK   99  A    between atoms: _235  and  _236
REMARK  100  A    between atoms: _242  and  _244
REMARK  101  A    between atoms: _244  and  _245
REMARK  102  A    between atoms: _244  and  _247
REMARK  103  A    between atoms: _247  and  _248
REMARK  104  A    between atoms: _251  and  _253
REMARK  105  A    between atoms: _253  and  _254
REMARK  106  A    between atoms: _253  and  _256
REMARK  107  A    between atoms: _256  and  _257
REMARK  108  A    between atoms: _260  and  _262
REMARK  109  A    between atoms: _262  and  _263
REMARK  110  A    between atoms: _262  and  _265
REMARK  111  A    between atoms: _265  and  _266
REMARK  112  A    between atoms: _266  and  _267
REMARK  113  A    between atoms: _267  and  _268
REMARK  114  A    between atoms: _277  and  _279
REMARK  115  A    between atoms: _279  and  _280
REMARK  116  A    between atoms: _279  and  _282
REMARK  117  A    between atoms: _282  and  _283
REMARK  118  A    between atoms: _286  and  _288
REMARK  119  A    between atoms: _288  and  _289
REMARK  120  A    between atoms: _288  and  _291
REMARK  121  A    between atoms: _291  and  _292
REMARK  122  A    between atoms: _292  and  _293
REMARK  123  A    between atoms: _298  and  _300
REMARK  124  A    between atoms: _300  and  _301
REMARK  125  A    between atoms: _300  and  _303
REMARK  126  A    between atoms: _303  and  _304
REMARK  127  A    between atoms: _306  and  _308
REMARK  128  A    between atoms: _308  and  _309
REMARK  129  A    between atoms: _311  and  _313
REMARK  130  A    between atoms: _313  and  _314
REMARK  131  A    between atoms: _313  and  _316
REMARK  132  A    between atoms: _316  and  _317
REMARK  133  A    between atoms: _322  and  _324
REMARK  134  A    between atoms: _324  and  _325
REMARK  135  A    between atoms: _327  and  _329
REMARK  136  A    between atoms: _329  and  _330
REMARK  137  A    between atoms: _329  and  _332
REMARK  138  A    between atoms: _332  and  _333
REMARK  139  A    between atoms: _339  and  _341
REMARK  140  A    between atoms: _341  and  _342
REMARK  141  A    between atoms: _341  and  _344
REMARK  142  A    between atoms: _344  and  _345
REMARK  143  A    between atoms: _348  and  _350
REMARK  144  A    between atoms: _350  and  _351
REMARK  145  A    between atoms: _350  and  _353
REMARK  146  A    between atoms: _353  and  _354
REMARK  147  A    between atoms: _354  and  _355
REMARK  148  A    between atoms: _358  and  _360
REMARK  149  A    between atoms: _360  and  _361
REMARK  150  A    between atoms: _360  and  _363
REMARK  151  A    between atoms: _363  and  _364
REMARK  152  A    between atoms: _367  and  _369
REMARK  153  A    between atoms: _369  and  _370
REMARK  154  A    between atoms: _369  and  _372
REMARK  155  A    between atoms: _375  and  _377
REMARK  156  A    between atoms: _377  and  _378
REMARK  157  A    between atoms: _377  and  _380
REMARK  158  A    between atoms: _380  and  _381
REMARK  159  A    between atoms: _384  and  _386
REMARK  160  A    between atoms: _386  and  _387
REMARK  161  A    between atoms: _386  and  _389
REMARK  162  A    between atoms: _389  and  _390
REMARK  163  A    between atoms: _395  and  _397
REMARK  164  A    between atoms: _397  and  _398
REMARK  165  A    between atoms: _400  and  _402
REMARK  166  A    between atoms: _402  and  _403
REMARK  167  A    between atoms: _402  and  _405
REMARK  168  A    between atoms: _405  and  _406
REMARK  169  A    between atoms: _406  and  _407
REMARK  170  A    between atoms: _409  and  _411
REMARK  171  A    between atoms: _411  and  _412
REMARK  172  A    between atoms: _411  and  _414
REMARK  173  A    between atoms: _417  and  _419
REMARK  174  A    between atoms: _419  and  _420
REMARK  175  A    between atoms: _419  and  _422
REMARK  176  A    between atoms: _422  and  _423
REMARK  177  A    between atoms: _425  and  _427
REMARK  178  A    between atoms: _427  and  _428
REMARK  179  A    between atoms: _427  and  _430
REMARK  180  A    between atoms: _430  and  _431
REMARK  181  A    between atoms: _433  and  _435
REMARK  182  A    between atoms: _435  and  _436
REMARK  183  A    between atoms: _435  and  _438
REMARK  184  A    between atoms: _438  and  _439
REMARK  185  A    between atoms: _439  and  _440
REMARK  186  A    between atoms: _445  and  _447
REMARK  187  A    between atoms: _447  and  _448
REMARK  188  A    between atoms: _451  and  _453
REMARK  189  A    between atoms: _453  and  _454
REMARK  190  A    between atoms: _453  and  _456
REMARK  191  A    between atoms: _456  and  _457
REMARK  192  A    between atoms: _457  and  _458
REMARK  193  A    between atoms: _460  and  _462
REMARK  194  A    between atoms: _462  and  _463
REMARK  195  A    between atoms: _462  and  _465
REMARK  196  A    between atoms: _465  and  _466
REMARK  197  A    between atoms: _471  and  _472
REMARK  198  A    between atoms: _474  and  _476
REMARK  199  A    between atoms: _476  and  _477
REMARK  200  A    between atoms: _476  and  _479
REMARK  201  A    between atoms: _479  and  _480
REMARK  202  A    between atoms: _483  and  _485
REMARK  203  A    between atoms: _485  and  _486
REMARK  204  A    between atoms: _485  and  _488
REMARK  205  A    between atoms: _488  and  _489
REMARK  206  A    between atoms: _491  and  _493
REMARK  207  A    between atoms: _493  and  _494
REMARK  208  A    between atoms: _493  and  _496
REMARK  209  A    between atoms: _496  and  _497
REMARK  210  A    between atoms: _500  and  _502
REMARK  211  A    between atoms: _502  and  _503
REMARK  212  A    between atoms: _502  and  _505
REMARK  213  A    between atoms: _505  and  _506
REMARK  214  A    between atoms: _506  and  _507
REMARK  215  A    between atoms: _509  and  _511
REMARK  216  A    between atoms: _511  and  _512
REMARK  217  A    between atoms: _511  and  _514
REMARK  218  A    between atoms: _514  and  _515
REMARK  219  A    between atoms: _520  and  _521
REMARK  220  A    between atoms: _523  and  _525
REMARK  221  A    between atoms: _525  and  _526
REMARK  222  A    between atoms: _525  and  _528
REMARK  223  A    between atoms: _528  and  _529
REMARK  224  A    between atoms: _529  and  _530
REMARK  225  A    between atoms: _530  and  _531
REMARK  226  A    between atoms: _540  and  _542
REMARK  227  A    between atoms: _542  and  _543
REMARK  228  A    between atoms: _542  and  _545
REMARK  229  A    between atoms: _545  and  _546
REMARK  230  A    between atoms: _548  and  _550
REMARK  231  A    between atoms: _550  and  _551
REMARK  232  A    between atoms: _550  and  _553
REMARK  233  A    between atoms: _553  and  _554
REMARK  234  A    between atoms: _559  and  _560
REMARK  235  A    between atoms: _562  and  _564
REMARK  236  A    between atoms: _564  and  _565
REMARK  237  A    between atoms: _568  and  _570
REMARK  238  A    between atoms: _570  and  _571
REMARK  239  A    between atoms: _574  and  _576
REMARK  240  A    between atoms: _576  and  _577
REMARK  241  A    between atoms: _576  and  _579
REMARK  242  A    between atoms: _579  and  _580
REMARK  243  A    between atoms: _580  and  _581
REMARK  244  A    between atoms: _581  and  _582
REMARK  245  A    between atoms: _591  and  _593
REMARK  246  A    between atoms: _593  and  _594
REMARK  247  A    between atoms: _593  and  _596
REMARK  248  A    between atoms: _599  and  _601
REMARK  249  A    between atoms: _601  and  _602
REMARK  250  A    between atoms: _604  and  _606
REMARK  251  A    between atoms: _606  and  _607
REMARK  252  A    between atoms: _606  and  _609
REMARK  253  A    between atoms: _609  and  _610
REMARK  254  A    between atoms: _613  and  _615
REMARK  255  A    between atoms: _615  and  _616
REMARK  256  A    between atoms: _619  and  _621
REMARK  257  A    between atoms: _621  and  _622
REMARK  258  A    between atoms: _621  and  _624
REMARK  259  A    between atoms: _624  and  _625
REMARK  260  A    between atoms: _628  and  _630
REMARK  261  A    between atoms: _630  and  _631
REMARK  262  A    between atoms: _630  and  _633
REMARK  263  A    between atoms: _633  and  _634
REMARK  264  A    between atoms: _639  and  _640
REMARK  265  A    between atoms: _642  and  _644
REMARK  266  A    between atoms: _644  and  _645
REMARK  267  A    between atoms: _644  and  _647
REMARK  268  A    between atoms: _647  and  _648
REMARK  269  A    between atoms: _648  and  _649
REMARK  270  A    between atoms: _651  and  _653
REMARK  271  A    between atoms: _653  and  _654
REMARK  272  A    between atoms: _653  and  _656
REMARK  273  A    between atoms: _656  and  _657
REMARK  274  A    between atoms: _657  and  _658
REMARK  275  A    between atoms: _661  and  _663
REMARK  276  A    between atoms: _663  and  _664
REMARK  277  A    between atoms: _663  and  _666
REMARK  278  A    between atoms: _666  and  _667
REMARK  279  A    between atoms: _673  and  _675
REMARK  280  A    between atoms: _675  and  _676
REMARK  281  A    between atoms: _675  and  _678
REMARK  282  A    between atoms: _678  and  _679
REMARK  283  A    between atoms: _684  and  _686
REMARK  284  A    between atoms: _686  and  _687
REMARK  285  A    between atoms: _686  and  _689
REMARK  286  A    between atoms: _689  and  _690
REMARK  287  A    between atoms: _700  and  _702
REMARK  288  A    between atoms: _702  and  _703
REMARK  289  A    between atoms: _702  and  _705
REMARK  290  A    between atoms: _708  and  _710
REMARK  291  A    between atoms: _710  and  _711
REMARK  292  A    between atoms: _710  and  _713
REMARK  293  A    between atoms: _713  and  _714
REMARK  294  A    between atoms: _717  and  _719
REMARK  295  A    between atoms: _719  and  _720
REMARK  296  A    between atoms: _719  and  _722
REMARK  297  A    between atoms: _722  and  _723
REMARK  298  A    between atoms: _723  and  _724
REMARK  299  A    between atoms: _726  and  _728
REMARK  300  A    between atoms: _728  and  _729
REMARK  301  A    between atoms: _728  and  _731
REMARK  302  A    between atoms: _731  and  _732
REMARK  303  A    between atoms: _735  and  _737
REMARK  304  A    between atoms: _737  and  _738
REMARK  305  A    between atoms: _737  and  _740
REMARK  306  A    between atoms: _740  and  _741
REMARK  307  A    between atoms: _744  and  _746
REMARK  308  A    between atoms: _746  and  _747
REMARK  309  A    between atoms: _746  and  _749
REMARK  310  A    between atoms: _749  and  _750
REMARK  311  A    between atoms: _753  and  _755
REMARK  312  A    between atoms: _755  and  _756
REMARK  313  A    between atoms: _755  and  _758
REMARK  314  A    between atoms: _758  and  _759
REMARK  315  A    between atoms: _762  and  _764
REMARK  316  A    between atoms: _764  and  _765
REMARK  317  A    between atoms: _767  and  _769
REMARK  318  A    between atoms: _769  and  _770
REMARK  319  A    between atoms: _769  and  _772
REMARK  320  A    between atoms: _772  and  _773
REMARK  321  A    between atoms: _775  and  _777
REMARK  322  A    between atoms: _777  and  _778
REMARK  323  A    between atoms: _777  and  _780
REMARK  324  A    between atoms: _780  and  _781
REMARK  325  A    between atoms: _791  and  _793
REMARK  326  A    between atoms: _793  and  _794
REMARK  327  A    between atoms: _793  and  _796
REMARK  328  A    between atoms: _796  and  _797
REMARK  329  A    between atoms: _799  and  _801
REMARK  330  A    between atoms: _801  and  _802
REMARK  331  A    between atoms: _801  and  _804
REMARK  332  A    between atoms: _804  and  _805
REMARK  333  A    between atoms: _808  and  _810
REMARK  334  A    between atoms: _810  and  _811
REMARK  335  A    between atoms: _814  and  _816
REMARK  336  A    between atoms: _816  and  _817
REMARK  337  A    between atoms: _816  and  _819
REMARK  338  A    between atoms: _819  and  _820
REMARK  339  A    between atoms: _822  and  _824
REMARK  340  A    between atoms: _824  and  _825
REMARK  341  A    between atoms: _824  and  _827
REMARK  342  A    between atoms: _827  and  _828
REMARK  343  A    between atoms: _828  and  _829
REMARK  344  A    between atoms: _832  and  _834
REMARK  345  A    between atoms: _834  and  _835
REMARK  346  A    between atoms: _834  and  _837
REMARK  347  A    between atoms: _837  and  _838
REMARK  348  A    between atoms: _840  and  _842
REMARK  349  A    between atoms: _842  and  _843
REMARK  350  A    between atoms: _842  and  _845
REMARK  351  A    between atoms: _845  and  _846
REMARK  352  A    between atoms: _846  and  _847
REMARK  353  A    between atoms: _852  and  _854
REMARK  354  A    between atoms: _854  and  _855
REMARK  355  A    between atoms: _854  and  _857
REMARK  356  A    between atoms: _857  and  _858
REMARK  357  A    between atoms: _858  and  _859
REMARK  358  A    between atoms: _864  and  _866
REMARK  359  A    between atoms: _866  and  _867
REMARK  360  A    between atoms: _866  and  _869
REMARK  361  A    between atoms: _869  and  _870
REMARK  362  A    between atoms: _873  and  _875
REMARK  363  A    between atoms: _875  and  _876
REMARK  364  A    between atoms: _875  and  _878
REMARK  365  A    between atoms: _878  and  _879
REMARK  366  A    between atoms: _882  and  _884
REMARK  367  A    between atoms: _884  and  _885
REMARK  368  A    between atoms: _884  and  _887
REMARK  369  A    between atoms: _887  and  _888
REMARK  370  A    between atoms: _895  and  _896
REMARK  371  A    between atoms: _901  and  _903
REMARK  372  A    between atoms: _903  and  _904
REMARK  373  A    between atoms: _903  and  _906
REMARK  374  A    between atoms: _906  and  _907
REMARK  375  A    between atoms: _912  and  _913
REMARK  376  A    between atoms: _915  and  _917
REMARK  377  A    between atoms: _917  and  _918
REMARK  378  A    between atoms: _917  and  _920
REMARK  379  A    between atoms: _920  and  _921
REMARK  380  A    between atoms: _926  and  _928
REMARK  381  A    between atoms: _928  and  _929
REMARK  382  A    between atoms: _928  and  _931
REMARK  383  A    between atoms: _931  and  _932
REMARK  384  A    between atoms: _938  and  _940
REMARK  385  A    between atoms: _940  and  _941
REMARK  386  A    between atoms: _940  and  _943
REMARK  387  A    between atoms: _943  and  _944
REMARK  388  A    between atoms: _947  and  _949
REMARK  389  A    between atoms: _949  and  _950
REMARK  390  A    between atoms: _949  and  _952
REMARK  391  A    between atoms: _952  and  _953
REMARK  392  A    between atoms: _958  and  _960
REMARK  393  A    between atoms: _960  and  _961
REMARK  394  A    between atoms: _960  and  _963
REMARK  395  A    between atoms: _963  and  _964
REMARK  396  A    between atoms: _970  and  _972
REMARK  397  A    between atoms: _972  and  _973
REMARK  398  A    between atoms: _972  and  _975
REMARK  399  A    between atoms: _975  and  _976
REMARK  400  A    between atoms: _976  and  _977
REMARK  401  A    between atoms: _979  and  _981
REMARK  402  A    between atoms: _981  and  _982
REMARK  403  A    between atoms: _981  and  _984
REMARK  404  A    between atoms: _984  and  _985
REMARK  405  A    between atoms: _988  and  _990
REMARK  406  A    between atoms: _990  and  _991
REMARK  407  A    between atoms: _990  and  _993
REMARK  408  A    between atoms: _993  and  _994
REMARK  409  A    between atoms: _999  and  _1001
REMARK  410  A    between atoms: _1001  and  _1002
REMARK  411  A    between atoms: _1001  and  _1004
REMARK  412  A    between atoms: _1004  and  _1005
REMARK  413  A    between atoms: _1010  and  _1011
REMARK                            x       y       z     vdW  Elec       q    Type
REMARK                         _______ _______ _______ _____ _____    ______ ____
ROOT
ATOM      1  C   GLN A   3     -14.973  -3.863  10.220  0.00  0.00    +0.241 C 
ATOM      2  N   ASP A   4     -14.774  -3.926  11.536  0.00  0.00    -0.297 N 
ATOM      3  H   ASP A   4     -15.594  -3.861  12.172  0.00  0.00    +0.150 HD
ATOM      4  O   GLN A   3     -14.063  -3.982   9.400  0.00  0.00    -0.273 OA
ENDROOT
BRANCH   2   5
ATOM      5  CA  ASP A   4     -13.437  -4.084  12.118  0.00  0.00    +0.160 C 
BRANCH   5   6
ATOM      6  C   ASP A   4     -12.866  -5.499  11.961  0.00  0.00    +0.241 C 
ATOM      7  O   ASP A   4     -11.753  -5.782  12.415  0.00  0.00    -0.273 OA
ATOM      8  N   LEU A   5     -13.628  -6.377  11.313  0.00  0.00    -0.297 N 
ATOM      9  H   LEU A   5     -14.573  -6.084  10.993  0.00  0.00    +0.150 HD
BRANCH   8  10
ATOM     10  CA  LEU A   5     -13.179  -7.739  11.037  0.00  0.00    +0.149 C 
BRANCH  10  11
ATOM     11  C   LEU A   5     -12.934  -7.986   9.549  0.00  0.00    +0.241 C 
ATOM     12  O   LEU A   5     -12.042  -8.755   9.188  0.00  0.00    -0.273 OA
ATOM     13  N   PHE A   6     -13.721  -7.339   8.693  0.00  0.00    -0.298 N 
ATOM     14  H   PHE A   6     -14.324  -6.565   9.039  0.00  0.00    +0.150 HD
BRANCH  13  15
ATOM     15  CA  PHE A   6     -13.754  -7.696   7.273  0.00  0.00    +0.141 C 
BRANCH  15  16
ATOM     16  C   PHE A   6     -13.574  -6.554   6.269  0.00  0.00    +0.227 C 
ATOM     17  O   PHE A   6     -13.470  -6.812   5.067  0.00  0.00    -0.286 OA
ENDBRANCH  15  16
BRANCH  15  18
ATOM     18  CB  PHE A   6     -15.043  -8.463   6.953  0.00  0.00    +0.054 C 
BRANCH  18  19
ATOM     19  CG  PHE A   6     -15.187  -9.759   7.704  0.00  0.00    -0.020 A 
ATOM     20  CD2 PHE A   6     -16.223  -9.935   8.613  0.00  0.00    -0.004 A 
ATOM     21  CE2 PHE A   6     -16.368 -11.130   9.307  0.00  0.00    -0.000 A 
ATOM     22  CZ  PHE A   6     -15.471 -12.169   9.094  0.00  0.00    -0.000 A 
ATOM     23  CE1 PHE A   6     -14.430 -12.009   8.186  0.00  0.00    -0.000 A 
ATOM     24  CD1 PHE A   6     -14.295 -10.808   7.493  0.00  0.00    -0.004 A 
ENDBRANCH  18  19
ENDBRANCH  15  18
ENDBRANCH  13  15
ENDBRANCH  10  11
BRANCH  10  25
ATOM     25  CB  LEU A   5     -14.191  -8.765  11.560  0.00  0.00    +0.029 C 
BRANCH  25  26
ATOM     26  CG  LEU A   5     -14.561  -8.825  13.045  0.00  0.00    +0.002 C 
ATOM     27  CD2 LEU A   5     -13.376  -9.213  13.925  0.00  0.00    +0.000 C 
ATOM     28  CD1 LEU A   5     -15.707  -9.806  13.230  0.00  0.00    +0.000 C 
ENDBRANCH  25  26
ENDBRANCH  10  25
ENDBRANCH   8  10
ENDBRANCH   5   6
BRANCH   5  29
ATOM     29  CB  ASP A   4     -13.437  -3.666  13.595  0.00  0.00    +0.143 C 
BRANCH  29  30
ATOM     30  CG  ASP A   4     -13.815  -2.204  13.795  0.00  0.00    +0.367 C 
ATOM     31  OD2 ASP A   4     -14.117  -1.830  14.948  0.00  0.00    -0.246 OA
ATOM     32  OD1 ASP A   4     -13.812  -1.430  12.812  0.00  0.00    -0.246 OA
ENDBRANCH  29  30
ENDBRANCH   5  29
ENDBRANCH   2   5
BRANCH   1  33
ATOM     33  CA  GLN A   3     -16.418  -3.660   9.753  0.00  0.00    +0.149 C 
BRANCH  33  35
ATOM     34  C   GLN A   2     -17.334  -5.775  10.584  0.00  0.00    +0.241 C 
ATOM     35  N   GLN A   3     -17.358  -4.443  10.559  0.00  0.00    -0.297 N 
ATOM     36  H   GLN A   3     -18.068  -3.942  11.131  0.00  0.00    +0.150 HD
ATOM     37  O   GLN A   2     -16.572  -6.447   9.882  0.00  0.00    -0.273 OA
BRANCH  34  38
ATOM     38  CA  GLN A   2     -18.306  -6.452  11.558  0.00  0.00    +0.149 C 
BRANCH  38  41
ATOM     39  C   SER A   1     -19.931  -5.220  12.896  0.00  0.00    +0.241 C 
ATOM     40  O   SER A   1     -19.210  -5.243  13.897  0.00  0.00    -0.274 OA
ATOM     41  N   GLN A   2     -19.561  -5.722  11.722  0.00  0.00    -0.297 N 
ATOM     42  H   GLN A   2     -20.182  -5.592  10.898  0.00  0.00    +0.150 HD
BRANCH  39  43
ATOM     43  CA  SER A   1     -21.322  -4.584  12.943  0.00  0.00    +0.174 C 
BRANCH  43  44
ATOM     44  N   SER A   1     -22.036  -4.890  14.191  0.00  0.00    -0.236 NA
ATOM     45  H   SER A   1     -22.312  -4.108  14.819  0.00  0.00    +0.142 HD
ENDBRANCH  43  44
BRANCH  43  46
ATOM     46  CB  SER A   1     -21.218  -3.072  12.725  0.00  0.00    +0.163 C 
BRANCH  46  47
ATOM     47  OG  SER A   1     -20.482  -2.772  11.549  0.00  0.00    -0.380 OA
ATOM     48  H   SER A   1     -20.431  -1.790  11.434  0.00  0.00    +0.211 HD
ENDBRANCH  46  47
ENDBRANCH  43  46
ENDBRANCH  39  43
ENDBRANCH  38  41
BRANCH  38  49
ATOM     49  CB  GLN A   2     -18.587  -7.900  11.144  0.00  0.00    +0.039 C 
BRANCH  49  50
ATOM     50  CG  GLN A   2     -19.371  -8.690  12.185  0.00  0.00    +0.087 C 
BRANCH  50  51
ATOM     51  CD  GLN A   2     -19.581 -10.142  11.804  0.00  0.00    +0.219 C 
ATOM     52  NE2 GLN A   2     -19.661 -11.007  12.809  0.00  0.00    -0.329 N 
ATOM     53 HE21 GLN A   2     -19.573 -10.674  13.790  0.00  0.00    +0.145 HD
ATOM     54 HE22 GLN A   2     -19.812 -12.017  12.615  0.00  0.00    +0.145 HD
ATOM     55  OE1 GLN A   2     -19.679 -10.484  10.625  0.00  0.00    -0.275 OA
ENDBRANCH  50  51
ENDBRANCH  49  50
ENDBRANCH  38  49
ENDBRANCH  34  38
ENDBRANCH  33  35
BRANCH  33  56
ATOM     56  CB  GLN A   3     -16.782  -2.173   9.789  0.00  0.00    +0.039 C 
BRANCH  56  57
ATOM     57  CG  GLN A   3     -18.095  -1.824   9.090  0.00  0.00    +0.087 C 
BRANCH  57  58
ATOM     58  CD  GLN A   3     -17.923  -1.399   7.637  0.00  0.00    +0.219 C 
ATOM     59  NE2 GLN A   3     -18.972  -0.814   7.072  0.00  0.00    -0.329 N 
ATOM     60 HE21 GLN A   3     -19.845  -0.671   7.619  0.00  0.00    +0.145 HD
ATOM     61 HE22 GLN A   3     -18.921  -0.498   6.082  0.00  0.00    +0.145 HD
ATOM     62  OE1 GLN A   3     -16.867  -1.591   7.033  0.00  0.00    -0.275 OA
ENDBRANCH  57  58
ENDBRANCH  56  57
ENDBRANCH  33  56
ENDBRANCH   1  33
TORSDOF 26
REMARK  Name = ../refined-set-2016/3drg/3drg_pocket.pdb
REMARK  413 active torsions:
REMARK  status: ('A' for Active; 'I' for Inactive)
REMARK    1  A    between atoms: _1  and  _3
REMARK    2  A    between atoms: _3  and  _4
REMARK    3  A    between atoms: _3  and  _6
REMARK    4  A    between atoms: _6  and  _7
REMARK    5  A    between atoms: _12  and  _13
REMARK    6  A    between atoms: _15  and  _17
REMARK    7  A    between atoms: _17  and  _18
REMARK    8  A    between atoms: _17  and  _20
REMARK    9  A    between atoms: _20  and  _21
REMARK   10  A    between atoms: _21  and  _22
REMARK   11  A    between atoms: _27  and  _29
REMARK   12  A    between atoms: _29  and  _30
REMARK   13  A    between atoms: _29  and  _32
REMARK   14  A    between atoms: _32  and  _33
REMARK   15  A    between atoms: _35  and  _37
REMARK   16  A    between atoms: _37  and  _38
REMARK   17  A    between atoms: _37  and  _40
REMARK   18  A    between atoms: _40  and  _41
REMARK   19  A    between atoms: _44  and  _46
REMARK   20  A    between atoms: _46  and  _47
REMARK   21  A    between atoms: _46  and  _49
REMARK   22  A    between atoms: _49  and  _50
REMARK   23  A    between atoms: _52  and  _54
REMARK   24  A    between atoms: _54  and  _55
REMARK   25  A    between atoms: _54  and  _57
REMARK   26  A    between atoms: _57  and  _58
REMARK   27  A    between atoms: _61  and  _63
REMARK   28  A    between atoms: _63  and  _64
REMARK   29  A    between atoms: _63  and  _66
REMARK   30  A    between atoms: _66  and  _67
REMARK   31  A    between atoms: _69  and  _71
REMARK   32  A    between atoms: _71  and  _72
REMARK   33  A    between atoms: _74  and  _76
REMARK   34  A    between atoms: _76  and  _77
REMARK   35  A    between atoms: _76  and  _79
REMARK   36  A    between atoms: _79  and  _80
REMARK   37  A    between atoms: _82  and  _84
REMARK   38  A    between atoms: _84  and  _85
REMARK   39  A    between atoms: _84  and  _87
REMARK   40  A    between atoms: _87  and  _88
REMARK   41  A    between atoms: _93  and  _95
REMARK   42  A    between atoms: _95  and  _96
REMARK   43  A    between atoms: _95  and  _98
REMARK   44  A    between atoms: _98  and  _99
REMARK   45  A    between atoms: _102  and  _104
REMARK   46  A    between atoms: _104  and  _105
REMARK   47  A    between atoms: _108  and  _110
REMARK   48  A    between atoms: _110  and  _111
REMARK   49  A    between atoms: _110  and  _113
REMARK   50  A    between atoms: _113  and  _114
REMARK   51  A    between atoms: _117  and  _119
REMARK   52  A    between atoms: _119  and  _120
REMARK   53  A    between atoms: _119  and  _122
REMARK   54  A    between atoms: _122  and  _123
REMARK   55  A    between atoms: _129  and  _131
REMARK   56  A    between atoms: _131  and  _132
REMARK   57  A    between atoms: _135  and  _137
REMARK   58  A    between atoms: _137  and  _138
REMARK   59  A    between atoms: _137  and  _140
REMARK   60  A    between atoms: _140  and  _141
REMARK   61  A    between atoms: _144  and  _146
REMARK   62  A    between atoms: _146  and  _147
REMARK   63  A    between atoms: _146  and  _149
REMARK   64  A    between atoms: _149  and  _150
REMARK   65  A    between atoms: _152  and  _154
REMARK   66  A    between atoms: _154  and  _155
REMARK   67  A    between atoms: _157  and  _159
REMARK   68  A    between atoms: _159  and  _160
REMARK   69  A    between atoms: _162  and  _164
REMARK   70  A    between atoms: _164  and  _165
REMARK   71  A    between atoms: _164  and  _167
REMARK   72  A    between atoms: _167  and  _168
REMARK   73  A    between atoms: _168  and  _169
REMARK   74  A    between atoms: _174  and  _176
REMARK   75  A    between atoms: _176  and  _177
REMARK   76  A    between atoms: _176  and  _179
REMARK   77  A    between atoms: _179  and  _180
REMARK   78  A    between atoms: _183  and  _185
REMARK   79  A    between atoms: _185  and  _186
REMARK   80  A    between atoms: _188  and  _190
REMARK   81  A    between atoms: _190  and  _191
REMARK   82  A    between atoms: _190  and  _193
REMARK   83  A    between atoms: _193  and  _194
REMARK   84  A    between atoms: _197  and  _199
REMARK   85  A    between atoms: _199  and  _200
REMARK   86  A    between atoms: _199  and  _202
REMARK   87  A    between atoms: _202  and  _203
REMARK   88  A    between atoms: _209  and  _211
REMARK   89  A    between atoms: _211  and  _212
REMARK   90  A    between atoms: _211  and  _214
REMARK   91  A    between atoms: _214  and  _215
REMARK   92  A    between atoms: _218  and  _220
REMARK   93  A    between atoms: _220  and  _221
REMARK   94  A    between atoms: _220  and  _223
REMARK   95  A    between atoms: _223  and  _224
REMARK   96  A    between atoms: _230  and  _232
REMARK   97  A    between atoms: _232  and  _233
REMARK   98  A    between atoms: _232  and  _235
REMARK   99  A    between atoms: _235  and  _236
REMARK  100  A    between atoms: _242  and  _244
REMARK  101  A    between atoms: _244  and  _245
REMARK  102  A    between atoms: _244  and  _247
REMARK  103  A    between atoms: _247  and  _248
REMARK  104  A    between atoms: _251  and  _253
REMARK  105  A    between atoms: _253  and  _254
REMARK  106  A    between atoms: _253  and  _256
REMARK  107  A    between atoms: _256  and  _257
REMARK  108  A    between atoms: _260  and  _262
REMARK  109  A    between atoms: _262  and  _263
REMARK  110  A    between atoms: _262  and  _265
REMARK  111  A    between atoms: _265  and  _266
REMARK  112  A    between atoms: _266  and  _267
REMARK  113  A    between atoms: _267  and  _268
REMARK  114  A    between atoms: _277  and  _279
REMARK  115  A    between atoms: _279  and  _280
REMARK  116  A    between atoms: _279  and  _282
REMARK  117  A    between atoms: _282  and  _283
REMARK  118  A    between atoms: _286  and  _288
REMARK  119  A    between atoms: _288  and  _289
REMARK  120  A    between atoms: _288  and  _291
REMARK  121  A    between atoms: _291  and  _292
REMARK  122  A    between atoms: _292  and  _293
REMARK  123  A    between atoms: _298  and  _300
REMARK  124  A    between atoms: _300  and  _301
REMARK  125  A    between atoms: _300  and  _303
REMARK  126  A    between atoms: _303  and  _304
REMARK  127  A    between atoms: _306  and  _308
REMARK  128  A    between atoms: _308  and  _309
REMARK  129  A    between atoms: _311  and  _313
REMARK  130  A    between atoms: _313  and  _314
REMARK  131  A    between atoms: _313  and  _316
REMARK  132  A    between atoms: _316  and  _317
REMARK  133  A    between atoms: _322  and  _324
REMARK  134  A    between atoms: _324  and  _325
REMARK  135  A    between atoms: _327  and  _329
REMARK  136  A    between atoms: _329  and  _330
REMARK  137  A    between atoms: _329  and  _332
REMARK  138  A    between atoms: _332  and  _333
REMARK  139  A    between atoms: _339  and  _341
REMARK  140  A    between atoms: _341  and  _342
REMARK  141  A    between atoms: _341  and  _344
REMARK  142  A    between atoms: _344  and  _345
REMARK  143  A    between atoms: _348  and  _350
REMARK  144  A    between atoms: _350  and  _351
REMARK  145  A    between atoms: _350  and  _353
REMARK  146  A    between atoms: _353  and  _354
REMARK  147  A    between atoms: _354  and  _355
REMARK  148  A    between atoms: _358  and  _360
REMARK  149  A    between atoms: _360  and  _361
REMARK  150  A    between atoms: _360  and  _363
REMARK  151  A    between atoms: _363  and  _364
REMARK  152  A    between atoms: _367  and  _369
REMARK  153  A    between atoms: _369  and  _370
REMARK  154  A    between atoms: _369  and  _372
REMARK  155  A    between atoms: _375  and  _377
REMARK  156  A    between atoms: _377  and  _378
REMARK  157  A    between atoms: _377  and  _380
REMARK  158  A    between atoms: _380  and  _381
REMARK  159  A    between atoms: _384  and  _386
REMARK  160  A    between atoms: _386  and  _387
REMARK  161  A    between atoms: _386  and  _389
REMARK  162  A    between atoms: _389  and  _390
REMARK  163  A    between atoms: _395  and  _397
REMARK  164  A    between atoms: _397  and  _398
REMARK  165  A    between atoms: _400  and  _402
REMARK  166  A    between atoms: _402  and  _403
REMARK  167  A    between atoms: _402  and  _405
REMARK  168  A    between atoms: _405  and  _406
REMARK  169  A    between atoms: _406  and  _407
REMARK  170  A    between atoms: _409  and  _411
REMARK  171  A    between atoms: _411  and  _412
REMARK  172  A    between atoms: _411  and  _414
REMARK  173  A    between atoms: _417  and  _419
REMARK  174  A    between atoms: _419  and  _420
REMARK  175  A    between atoms: _419  and  _422
REMARK  176  A    between atoms: _422  and  _423
REMARK  177  A    between atoms: _425  and  _427
REMARK  178  A    between atoms: _427  and  _428
REMARK  179  A    between atoms: _427  and  _430
REMARK  180  A    between atoms: _430  and  _431
REMARK  181  A    between atoms: _433  and  _435
REMARK  182  A    between atoms: _435  and  _436
REMARK  183  A    between atoms: _435  and  _438
REMARK  184  A    between atoms: _438  and  _439
REMARK  185  A    between atoms: _439  and  _440
REMARK  186  A    between atoms: _445  and  _447
REMARK  187  A    between atoms: _447  and  _448
REMARK  188  A    between atoms: _451  and  _453
REMARK  189  A    between atoms: _453  and  _454
REMARK  190  A    between atoms: _453  and  _456
REMARK  191  A    between atoms: _456  and  _457
REMARK  192  A    between atoms: _457  and  _458
REMARK  193  A    between atoms: _460  and  _462
REMARK  194  A    between atoms: _462  and  _463
REMARK  195  A    between atoms: _462  and  _465
REMARK  196  A    between atoms: _465  and  _466
REMARK  197  A    between atoms: _471  and  _472
REMARK  198  A    between atoms: _474  and  _476
REMARK  199  A    between atoms: _476  and  _477
REMARK  200  A    between atoms: _476  and  _479
REMARK  201  A    between atoms: _479  and  _480
REMARK  202  A    between atoms: _483  and  _485
REMARK  203  A    between atoms: _485  and  _486
REMARK  204  A    between atoms: _485  and  _488
REMARK  205  A    between atoms: _488  and  _489
REMARK  206  A    between atoms: _491  and  _493
REMARK  207  A    between atoms: _493  and  _494
REMARK  208  A    between atoms: _493  and  _496
REMARK  209  A    between atoms: _496  and  _497
REMARK  210  A    between atoms: _500  and  _502
REMARK  211  A    between atoms: _502  and  _503
REMARK  212  A    between atoms: _502  and  _505
REMARK  213  A    between atoms: _505  and  _506
REMARK  214  A    between atoms: _506  and  _507
REMARK  215  A    between atoms: _509  and  _511
REMARK  216  A    between atoms: _511  and  _512
REMARK  217  A    between atoms: _511  and  _514
REMARK  218  A    between atoms: _514  and  _515
REMARK  219  A    between atoms: _520  and  _521
REMARK  220  A    between atoms: _523  and  _525
REMARK  221  A    between atoms: _525  and  _526
REMARK  222  A    between atoms: _525  and  _528
REMARK  223  A    between atoms: _528  and  _529
REMARK  224  A    between atoms: _529  and  _530
REMARK  225  A    between atoms: _530  and  _531
REMARK  226  A    between atoms: _540  and  _542
REMARK  227  A    between atoms: _542  and  _543
REMARK  228  A    between atoms: _542  and  _545
REMARK  229  A    between atoms: _545  and  _546
REMARK  230  A    between atoms: _548  and  _550
REMARK  231  A    between atoms: _550  and  _551
REMARK  232  A    between atoms: _550  and  _553
REMARK  233  A    between atoms: _553  and  _554
REMARK  234  A    between atoms: _559  and  _560
REMARK  235  A    between atoms: _562  and  _564
REMARK  236  A    between atoms: _564  and  _565
REMARK  237  A    between atoms: _568  and  _570
REMARK  238  A    between atoms: _570  and  _571
REMARK  239  A    between atoms: _574  and  _576
REMARK  240  A    between atoms: _576  and  _577
REMARK  241  A    between atoms: _576  and  _579
REMARK  242  A    between atoms: _579  and  _580
REMARK  243  A    between atoms: _580  and  _581
REMARK  244  A    between atoms: _581  and  _582
REMARK  245  A    between atoms: _591  and  _593
REMARK  246  A    between atoms: _593  and  _594
REMARK  247  A    between atoms: _593  and  _596
REMARK  248  A    between atoms: _599  and  _601
REMARK  249  A    between atoms: _601  and  _602
REMARK  250  A    between atoms: _604  and  _606
REMARK  251  A    between atoms: _606  and  _607
REMARK  252  A    between atoms: _606  and  _609
REMARK  253  A    between atoms: _609  and  _610
REMARK  254  A    between atoms: _613  and  _615
REMARK  255  A    between atoms: _615  and  _616
REMARK  256  A    between atoms: _619  and  _621
REMARK  257  A    between atoms: _621  and  _622
REMARK  258  A    between atoms: _621  and  _624
REMARK  259  A    between atoms: _624  and  _625
REMARK  260  A    between atoms: _628  and  _630
REMARK  261  A    between atoms: _630  and  _631
REMARK  262  A    between atoms: _630  and  _633
REMARK  263  A    between atoms: _633  and  _634
REMARK  264  A    between atoms: _639  and  _640
REMARK  265  A    between atoms: _642  and  _644
REMARK  266  A    between atoms: _644  and  _645
REMARK  267  A    between atoms: _644  and  _647
REMARK  268  A    between atoms: _647  and  _648
REMARK  269  A    between atoms: _648  and  _649
REMARK  270  A    between atoms: _651  and  _653
REMARK  271  A    between atoms: _653  and  _654
REMARK  272  A    between atoms: _653  and  _656
REMARK  273  A    between atoms: _656  and  _657
REMARK  274  A    between atoms: _657  and  _658
REMARK  275  A    between atoms: _661  and  _663
REMARK  276  A    between atoms: _663  and  _664
REMARK  277  A    between atoms: _663  and  _666
REMARK  278  A    between atoms: _666  and  _667
REMARK  279  A    between atoms: _673  and  _675
REMARK  280  A    between atoms: _675  and  _676
REMARK  281  A    between atoms: _675  and  _678
REMARK  282  A    between atoms: _678  and  _679
REMARK  283  A    between atoms: _684  and  _686
REMARK  284  A    between atoms: _686  and  _687
REMARK  285  A    between atoms: _686  and  _689
REMARK  286  A    between atoms: _689  and  _690
REMARK  287  A    between atoms: _700  and  _702
REMARK  288  A    between atoms: _702  and  _703
REMARK  289  A    between atoms: _702  and  _705
REMARK  290  A    between atoms: _708  and  _710
REMARK  291  A    between atoms: _710  and  _711
REMARK  292  A    between atoms: _710  and  _713
REMARK  293  A    between atoms: _713  and  _714
REMARK  294  A    between atoms: _717  and  _719
REMARK  295  A    between atoms: _719  and  _720
REMARK  296  A    between atoms: _719  and  _722
REMARK  297  A    between atoms: _722  and  _723
REMARK  298  A    between atoms: _723  and  _724
REMARK  299  A    between atoms: _726  and  _728
REMARK  300  A    between atoms: _728  and  _729
REMARK  301  A    between atoms: _728  and  _731
REMARK  302  A    between atoms: _731  and  _732
REMARK  303  A    between atoms: _735  and  _737
REMARK  304  A    between atoms: _737  and  _738
REMARK  305  A    between atoms: _737  and  _740
REMARK  306  A    between atoms: _740  and  _741
REMARK  307  A    between atoms: _744  and  _746
REMARK  308  A    between atoms: _746  and  _747
REMARK  309  A    between atoms: _746  and  _749
REMARK  310  A    between atoms: _749  and  _750
REMARK  311  A    between atoms: _753  and  _755
REMARK  312  A    between atoms: _755  and  _756
REMARK  313  A    between atoms: _755  and  _758
REMARK  314  A    between atoms: _758  and  _759
REMARK  315  A    between atoms: _762  and  _764
REMARK  316  A    between atoms: _764  and  _765
REMARK  317  A    between atoms: _767  and  _769
REMARK  318  A    between atoms: _769  and  _770
REMARK  319  A    between atoms: _769  and  _772
REMARK  320  A    between atoms: _772  and  _773
REMARK  321  A    between atoms: _775  and  _777
REMARK  322  A    between atoms: _777  and  _778
REMARK  323  A    between atoms: _777  and  _780
REMARK  324  A    between atoms: _780  and  _781
REMARK  325  A    between atoms: _791  and  _793
REMARK  326  A    between atoms: _793  and  _794
REMARK  327  A    between atoms: _793  and  _796
REMARK  328  A    between atoms: _796  and  _797
REMARK  329  A    between atoms: _799  and  _801
REMARK  330  A    between atoms: _801  and  _802
REMARK  331  A    between atoms: _801  and  _804
REMARK  332  A    between atoms: _804  and  _805
REMARK  333  A    between atoms: _808  and  _810
REMARK  334  A    between atoms: _810  and  _811
REMARK  335  A    between atoms: _814  and  _816
REMARK  336  A    between atoms: _816  and  _817
REMARK  337  A    between atoms: _816  and  _819
REMARK  338  A    between atoms: _819  and  _820
REMARK  339  A    between atoms: _822  and  _824
REMARK  340  A    between atoms: _824  and  _825
REMARK  341  A    between atoms: _824  and  _827
REMARK  342  A    between atoms: _827  and  _828
REMARK  343  A    between atoms: _828  and  _829
REMARK  344  A    between atoms: _832  and  _834
REMARK  345  A    between atoms: _834  and  _835
REMARK  346  A    between atoms: _834  and  _837
REMARK  347  A    between atoms: _837  and  _838
REMARK  348  A    between atoms: _840  and  _842
REMARK  349  A    between atoms: _842  and  _843
REMARK  350  A    between atoms: _842  and  _845
REMARK  351  A    between atoms: _845  and  _846
REMARK  352  A    between atoms: _846  and  _847
REMARK  353  A    between atoms: _852  and  _854
REMARK  354  A    between atoms: _854  and  _855
REMARK  355  A    between atoms: _854  and  _857
REMARK  356  A    between atoms: _857  and  _858
REMARK  357  A    between atoms: _858  and  _859
REMARK  358  A    between atoms: _864  and  _866
REMARK  359  A    between atoms: _866  and  _867
REMARK  360  A    between atoms: _866  and  _869
REMARK  361  A    between atoms: _869  and  _870
REMARK  362  A    between atoms: _873  and  _875
REMARK  363  A    between atoms: _875  and  _876
REMARK  364  A    between atoms: _875  and  _878
REMARK  365  A    between atoms: _878  and  _879
REMARK  366  A    between atoms: _882  and  _884
REMARK  367  A    between atoms: _884  and  _885
REMARK  368  A    between atoms: _884  and  _887
REMARK  369  A    between atoms: _887  and  _888
REMARK  370  A    between atoms: _895  and  _896
REMARK  371  A    between atoms: _901  and  _903
REMARK  372  A    between atoms: _903  and  _904
REMARK  373  A    between atoms: _903  and  _906
REMARK  374  A    between atoms: _906  and  _907
REMARK  375  A    between atoms: _912  and  _913
REMARK  376  A    between atoms: _915  and  _917
REMARK  377  A    between atoms: _917  and  _918
REMARK  378  A    between atoms: _917  and  _920
REMARK  379  A    between atoms: _920  and  _921
REMARK  380  A    between atoms: _926  and  _928
REMARK  381  A    between atoms: _928  and  _929
REMARK  382  A    between atoms: _928  and  _931
REMARK  383  A    between atoms: _931  and  _932
REMARK  384  A    between atoms: _938  and  _940
REMARK  385  A    between atoms: _940  and  _941
REMARK  386  A    between atoms: _940  and  _943
REMARK  387  A    between atoms: _943  and  _944
REMARK  388  A    between atoms: _947  and  _949
REMARK  389  A    between atoms: _949  and  _950
REMARK  390  A    between atoms: _949  and  _952
REMARK  391  A    between atoms: _952  and  _953
REMARK  392  A    between atoms: _958  and  _960
REMARK  393  A    between atoms: _960  and  _961
REMARK  394  A    between atoms: _960  and  _963
REMARK  395  A    between atoms: _963  and  _964
REMARK  396  A    between atoms: _970  and  _972
REMARK  397  A    between atoms: _972  and  _973
REMARK  398  A    between atoms: _972  and  _975
REMARK  399  A    between atoms: _975  and  _976
REMARK  400  A    between atoms: _976  and  _977
REMARK  401  A    between atoms: _979  and  _981
REMARK  402  A    between atoms: _981  and  _982
REMARK  403  A    between atoms: _981  and  _984
REMARK  404  A    between atoms: _984  and  _985
REMARK  405  A    between atoms: _988  and  _990
REMARK  406  A    between atoms: _990  and  _991
REMARK  407  A    between atoms: _990  and  _993
REMARK  408  A    between atoms: _993  and  _994
REMARK  409  A    between atoms: _999  and  _1001
REMARK  410  A    between atoms: _1001  and  _1002
REMARK  411  A    between atoms: _1001  and  _1004
REMARK  412  A    between atoms: _1004  and  _1005
REMARK  413  A    between atoms: _1010  and  _1011
REMARK                            x       y       z     vdW  Elec       q    Type
REMARK                         _______ _______ _______ _____ _____    ______ ____
ROOT
ATOM      1  C   TYR A   2      -8.425  -8.922  10.149  0.00  0.00    +0.241 C 
ATOM      2  O   TYR A   2      -8.728 -10.065  10.498  0.00  0.00    -0.273 OA
ATOM      3  N   ASN A   3      -8.668  -8.442   8.929  0.00  0.00    -0.297 N 
ATOM      4  H   ASN A   3      -8.553  -7.421   8.768  0.00  0.00    +0.150 HD
ENDROOT
BRANCH   1   5
ATOM      5  CA  TYR A   2      -7.739  -7.964  11.132  0.00  0.00    +0.153 C 
BRANCH   5   7
ATOM      6  C   PRO A   1      -5.979  -7.116   9.634  0.00  0.00    +0.239 C 
ATOM      7  N   TYR A   2      -7.003  -6.887  10.457  0.00  0.00    -0.297 N 
ATOM      8  H   TYR A   2      -7.293  -5.903  10.628  0.00  0.00    +0.150 HD
ATOM      9  O   PRO A   1      -5.544  -8.245   9.389  0.00  0.00    -0.274 OA
BRANCH   6  14
ATOM     10  N   PRO A   1      -6.227  -4.740   8.868  0.00  0.00    -0.210 NA
ATOM     11  CD  PRO A   1      -5.624  -3.536   9.473  0.00  0.00    +0.089 C 
ATOM     12  CG  PRO A   1      -4.183  -3.914   9.636  0.00  0.00    +0.021 C 
ATOM     13  CB  PRO A   1      -4.192  -5.378   9.858  0.00  0.00    +0.028 C 
ATOM     14  CA  PRO A   1      -5.330  -5.897   8.975  0.00  0.00    +0.149 C 
ENDBRANCH   6  14
ENDBRANCH   5   7
BRANCH   5  15
ATOM     15  CB  TYR A   2      -8.752  -7.384  12.129  0.00  0.00    +0.055 C 
BRANCH  15  16
ATOM     16  CG  TYR A   2      -8.186  -7.069  13.504  0.00  0.00    -0.020 A 
ATOM     17  CD2 TYR A   2      -8.969  -7.219  14.649  0.00  0.00    -0.001 A 
ATOM     18  CE2 TYR A   2      -8.459  -6.926  15.917  0.00  0.00    +0.036 A 
ATOM     19  CZ  TYR A   2      -7.153  -6.470  16.042  0.00  0.00    +0.134 A 
ATOM     20  CE1 TYR A   2      -6.358  -6.308  14.919  0.00  0.00    +0.036 A 
ATOM     21  CD1 TYR A   2      -6.878  -6.602  13.661  0.00  0.00    -0.001 A 
BRANCH  19  22
ATOM     22  OH  TYR A   2      -6.638  -6.178  17.285  0.00  0.00    -0.506 OA
ATOM     23  HH  TYR A   2      -5.702  -5.869  17.189  0.00  0.00    +0.292 HD
ENDBRANCH  19  22
ENDBRANCH  15  16
ENDBRANCH   5  15
ENDBRANCH   1   5
BRANCH   3  24
ATOM     24  CA  ASN A   3      -9.088  -9.279   7.806  0.00  0.00    +0.158 C 
BRANCH  24  25
ATOM     25  C   ASN A   3      -7.867 -10.043   7.292  0.00  0.00    +0.241 C 
ATOM     26  N   PHE A   4      -7.458 -11.072   8.036  0.00  0.00    -0.298 N 
ATOM     27  H   PHE A   4      -8.055 -11.397   8.823  0.00  0.00    +0.150 HD
ATOM     28  O   ASN A   3      -7.306  -9.708   6.244  0.00  0.00    -0.273 OA
BRANCH  26  29
ATOM     29  CA  PHE A   4      -6.187 -11.757   7.771  0.00  0.00    +0.141 C 
BRANCH  29  30
ATOM     30  C   PHE A   4      -6.226 -12.837   6.680  0.00  0.00    +0.227 C 
ATOM     31  O   PHE A   4      -5.212 -13.475   6.396  0.00  0.00    -0.286 OA
ENDBRANCH  29  30
BRANCH  29  32
ATOM     32  CB  PHE A   4      -5.538 -12.269   9.070  0.00  0.00    +0.054 C 
BRANCH  32  33
ATOM     33  CG  PHE A   4      -6.374 -13.255   9.840  0.00  0.00    -0.020 A 
ATOM     34  CD2 PHE A   4      -7.157 -12.834  10.909  0.00  0.00    -0.004 A 
ATOM     35  CE2 PHE A   4      -7.924 -13.744  11.637  0.00  0.00    -0.000 A 
ATOM     36  CZ  PHE A   4      -7.898 -15.093  11.306  0.00  0.00    -0.000 A 
ATOM     37  CE1 PHE A   4      -7.112 -15.530  10.246  0.00  0.00    -0.000 A 
ATOM     38  CD1 PHE A   4      -6.347 -14.613   9.524  0.00  0.00    -0.004 A 
ENDBRANCH  32  33
ENDBRANCH  29  32
ENDBRANCH  26  29
ENDBRANCH  24  25
BRANCH  24  39
ATOM     39  CB  ASN A   3      -9.698  -8.395   6.705  0.00  0.00    +0.114 C 
BRANCH  39  40
ATOM     40  CG  ASN A   3     -10.315  -9.194   5.556  0.00  0.00    +0.222 C 
ATOM     41  OD1 ASN A   3      -9.904 -10.316   5.252  0.00  0.00    -0.275 OA
ATOM     42  ND2 ASN A   3     -11.302  -8.599   4.902  0.00  0.00    -0.329 N 
ATOM     43 HD21 ASN A   3     -11.620  -7.651   5.190  0.00  0.00    +0.145 HD
ATOM     44 HD22 ASN A   3     -11.759  -9.080   4.101  0.00  0.00    +0.145 HD
ENDBRANCH  39  40
ENDBRANCH  24  39
ENDBRANCH   3  24
TORSDOF 14
REMARK  Name = ../refined-set-2016/3drg/3drg_pocket.pdb
REMARK  413 active torsions:
REMARK  status: ('A' for Active; 'I' for Inactive)
REMARK    1  A    between atoms: _1  and  _3
REMARK    2  A    between atoms: _3  and  _4
REMARK    3  A    between atoms: _3  and  _6
REMARK    4  A    between atoms: _6  and  _7
REMARK    5  A    between atoms: _12  and  _13
REMARK    6  A    between atoms: _15  and  _17
REMARK    7  A    between atoms: _17  and  _18
REMARK    8  A    between atoms: _17  and  _20
REMARK    9  A    between atoms: _20  and  _21
REMARK   10  A    between atoms: _21  and  _22
REMARK   11  A    between atoms: _27  and  _29
REMARK   12  A    between atoms: _29  and  _30
REMARK   13  A    between atoms: _29  and  _32
REMARK   14  A    between atoms: _32  and  _33
REMARK   15  A    between atoms: _35  and  _37
REMARK   16  A    between atoms: _37  and  _38
REMARK   17  A    between atoms: _37  and  _40
REMARK   18  A    between atoms: _40  and  _41
REMARK   19  A    between atoms: _44  and  _46
REMARK   20  A    between atoms: _46  and  _47
REMARK   21  A    between atoms: _46  and  _49
REMARK   22  A    between atoms: _49  and  _50
REMARK   23  A    between atoms: _52  and  _54
REMARK   24  A    between atoms: _54  and  _55
REMARK   25  A    between atoms: _54  and  _57
REMARK   26  A    between atoms: _57  and  _58
REMARK   27  A    between atoms: _61  and  _63
REMARK   28  A    between atoms: _63  and  _64
REMARK   29  A    between atoms: _63  and  _66
REMARK   30  A    between atoms: _66  and  _67
REMARK   31  A    between atoms: _69  and  _71
REMARK   32  A    between atoms: _71  and  _72
REMARK   33  A    between atoms: _74  and  _76
REMARK   34  A    between atoms: _76  and  _77
REMARK   35  A    between atoms: _76  and  _79
REMARK   36  A    between atoms: _79  and  _80
REMARK   37  A    between atoms: _82  and  _84
REMARK   38  A    between atoms: _84  and  _85
REMARK   39  A    between atoms: _84  and  _87
REMARK   40  A    between atoms: _87  and  _88
REMARK   41  A    between atoms: _93  and  _95
REMARK   42  A    between atoms: _95  and  _96
REMARK   43  A    between atoms: _95  and  _98
REMARK   44  A    between atoms: _98  and  _99
REMARK   45  A    between atoms: _102  and  _104
REMARK   46  A    between atoms: _104  and  _105
REMARK   47  A    between atoms: _108  and  _110
REMARK   48  A    between atoms: _110  and  _111
REMARK   49  A    between atoms: _110  and  _113
REMARK   50  A    between atoms: _113  and  _114
REMARK   51  A    between atoms: _117  and  _119
REMARK   52  A    between atoms: _119  and  _120
REMARK   53  A    between atoms: _119  and  _122
REMARK   54  A    between atoms: _122  and  _123
REMARK   55  A    between atoms: _129  and  _131
REMARK   56  A    between atoms: _131  and  _132
REMARK   57  A    between atoms: _135  and  _137
REMARK   58  A    between atoms: _137  and  _138
REMARK   59  A    between atoms: _137  and  _140
REMARK   60  A    between atoms: _140  and  _141
REMARK   61  A    between atoms: _144  and  _146
REMARK   62  A    between atoms: _146  and  _147
REMARK   63  A    between atoms: _146  and  _149
REMARK   64  A    between atoms: _149  and  _150
REMARK   65  A    between atoms: _152  and  _154
REMARK   66  A    between atoms: _154  and  _155
REMARK   67  A    between atoms: _157  and  _159
REMARK   68  A    between atoms: _159  and  _160
REMARK   69  A    between atoms: _162  and  _164
REMARK   70  A    between atoms: _164  and  _165
REMARK   71  A    between atoms: _164  and  _167
REMARK   72  A    between atoms: _167  and  _168
REMARK   73  A    between atoms: _168  and  _169
REMARK   74  A    between atoms: _174  and  _176
REMARK   75  A    between atoms: _176  and  _177
REMARK   76  A    between atoms: _176  and  _179
REMARK   77  A    between atoms: _179  and  _180
REMARK   78  A    between atoms: _183  and  _185
REMARK   79  A    between atoms: _185  and  _186
REMARK   80  A    between atoms: _188  and  _190
REMARK   81  A    between atoms: _190  and  _191
REMARK   82  A    between atoms: _190  and  _193
REMARK   83  A    between atoms: _193  and  _194
REMARK   84  A    between atoms: _197  and  _199
REMARK   85  A    between atoms: _199  and  _200
REMARK   86  A    between atoms: _199  and  _202
REMARK   87  A    between atoms: _202  and  _203
REMARK   88  A    between atoms: _209  and  _211
REMARK   89  A    between atoms: _211  and  _212
REMARK   90  A    between atoms: _211  and  _214
REMARK   91  A    between atoms: _214  and  _215
REMARK   92  A    between atoms: _218  and  _220
REMARK   93  A    between atoms: _220  and  _221
REMARK   94  A    between atoms: _220  and  _223
REMARK   95  A    between atoms: _223  and  _224
REMARK   96  A    between atoms: _230  and  _232
REMARK   97  A    between atoms: _232  and  _233
REMARK   98  A    between atoms: _232  and  _235
REMARK   99  A    between atoms: _235  and  _236
REMARK  100  A    between atoms: _242  and  _244
REMARK  101  A    between atoms: _244  and  _245
REMARK  102  A    between atoms: _244  and  _247
REMARK  103  A    between atoms: _247  and  _248
REMARK  104  A    between atoms: _251  and  _253
REMARK  105  A    between atoms: _253  and  _254
REMARK  106  A    between atoms: _253  and  _256
REMARK  107  A    between atoms: _256  and  _257
REMARK  108  A    between atoms: _260  and  _262
REMARK  109  A    between atoms: _262  and  _263
REMARK  110  A    between atoms: _262  and  _265
REMARK  111  A    between atoms: _265  and  _266
REMARK  112  A    between atoms: _266  and  _267
REMARK  113  A    between atoms: _267  and  _268
REMARK  114  A    between atoms: _277  and  _279
REMARK  115  A    between atoms: _279  and  _280
REMARK  116  A    between atoms: _279  and  _282
REMARK  117  A    between atoms: _282  and  _283
REMARK  118  A    between atoms: _286  and  _288
REMARK  119  A    between atoms: _288  and  _289
REMARK  120  A    between atoms: _288  and  _291
REMARK  121  A    between atoms: _291  and  _292
REMARK  122  A    between atoms: _292  and  _293
REMARK  123  A    between atoms: _298  and  _300
REMARK  124  A    between atoms: _300  and  _301
REMARK  125  A    between atoms: _300  and  _303
REMARK  126  A    between atoms: _303  and  _304
REMARK  127  A    between atoms: _306  and  _308
REMARK  128  A    between atoms: _308  and  _309
REMARK  129  A    between atoms: _311  and  _313
REMARK  130  A    between atoms: _313  and  _314
REMARK  131  A    between atoms: _313  and  _316
REMARK  132  A    between atoms: _316  and  _317
REMARK  133  A    between atoms: _322  and  _324
REMARK  134  A    between atoms: _324  and  _325
REMARK  135  A    between atoms: _327  and  _329
REMARK  136  A    between atoms: _329  and  _330
REMARK  137  A    between atoms: _329  and  _332
REMARK  138  A    between atoms: _332  and  _333
REMARK  139  A    between atoms: _339  and  _341
REMARK  140  A    between atoms: _341  and  _342
REMARK  141  A    between atoms: _341  and  _344
REMARK  142  A    between atoms: _344  and  _345
REMARK  143  A    between atoms: _348  and  _350
REMARK  144  A    between atoms: _350  and  _351
REMARK  145  A    between atoms: _350  and  _353
REMARK  146  A    between atoms: _353  and  _354
REMARK  147  A    between atoms: _354  and  _355
REMARK  148  A    between atoms: _358  and  _360
REMARK  149  A    between atoms: _360  and  _361
REMARK  150  A    between atoms: _360  and  _363
REMARK  151  A    between atoms: _363  and  _364
REMARK  152  A    between atoms: _367  and  _369
REMARK  153  A    between atoms: _369  and  _370
REMARK  154  A    between atoms: _369  and  _372
REMARK  155  A    between atoms: _375  and  _377
REMARK  156  A    between atoms: _377  and  _378
REMARK  157  A    between atoms: _377  and  _380
REMARK  158  A    between atoms: _380  and  _381
REMARK  159  A    between atoms: _384  and  _386
REMARK  160  A    between atoms: _386  and  _387
REMARK  161  A    between atoms: _386  and  _389
REMARK  162  A    between atoms: _389  and  _390
REMARK  163  A    between atoms: _395  and  _397
REMARK  164  A    between atoms: _397  and  _398
REMARK  165  A    between atoms: _400  and  _402
REMARK  166  A    between atoms: _402  and  _403
REMARK  167  A    between atoms: _402  and  _405
REMARK  168  A    between atoms: _405  and  _406
REMARK  169  A    between atoms: _406  and  _407
REMARK  170  A    between atoms: _409  and  _411
REMARK  171  A    between atoms: _411  and  _412
REMARK  172  A    between atoms: _411  and  _414
REMARK  173  A    between atoms: _417  and  _419
REMARK  174  A    between atoms: _419  and  _420
REMARK  175  A    between atoms: _419  and  _422
REMARK  176  A    between atoms: _422  and  _423
REMARK  177  A    between atoms: _425  and  _427
REMARK  178  A    between atoms: _427  and  _428
REMARK  179  A    between atoms: _427  and  _430
REMARK  180  A    between atoms: _430  and  _431
REMARK  181  A    between atoms: _433  and  _435
REMARK  182  A    between atoms: _435  and  _436
REMARK  183  A    between atoms: _435  and  _438
REMARK  184  A    between atoms: _438  and  _439
REMARK  185  A    between atoms: _439  and  _440
REMARK  186  A    between atoms: _445  and  _447
REMARK  187  A    between atoms: _447  and  _448
REMARK  188  A    between atoms: _451  and  _453
REMARK  189  A    between atoms: _453  and  _454
REMARK  190  A    between atoms: _453  and  _456
REMARK  191  A    between atoms: _456  and  _457
REMARK  192  A    between atoms: _457  and  _458
REMARK  193  A    between atoms: _460  and  _462
REMARK  194  A    between atoms: _462  and  _463
REMARK  195  A    between atoms: _462  and  _465
REMARK  196  A    between atoms: _465  and  _466
REMARK  197  A    between atoms: _471  and  _472
REMARK  198  A    between atoms: _474  and  _476
REMARK  199  A    between atoms: _476  and  _477
REMARK  200  A    between atoms: _476  and  _479
REMARK  201  A    between atoms: _479  and  _480
REMARK  202  A    between atoms: _483  and  _485
REMARK  203  A    between atoms: _485  and  _486
REMARK  204  A    between atoms: _485  and  _488
REMARK  205  A    between atoms: _488  and  _489
REMARK  206  A    between atoms: _491  and  _493
REMARK  207  A    between atoms: _493  and  _494
REMARK  208  A    between atoms: _493  and  _496
REMARK  209  A    between atoms: _496  and  _497
REMARK  210  A    between atoms: _500  and  _502
REMARK  211  A    between atoms: _502  and  _503
REMARK  212  A    between atoms: _502  and  _505
REMARK  213  A    between atoms: _505  and  _506
REMARK  214  A    between atoms: _506  and  _507
REMARK  215  A    between atoms: _509  and  _511
REMARK  216  A    between atoms: _511  and  _512
REMARK  217  A    between atoms: _511  and  _514
REMARK  218  A    between atoms: _514  and  _515
REMARK  219  A    between atoms: _520  and  _521
REMARK  220  A    between atoms: _523  and  _525
REMARK  221  A    between atoms: _525  and  _526
REMARK  222  A    between atoms: _525  and  _528
REMARK  223  A    between atoms: _528  and  _529
REMARK  224  A    between atoms: _529  and  _530
REMARK  225  A    between atoms: _530  and  _531
REMARK  226  A    between atoms: _540  and  _542
REMARK  227  A    between atoms: _542  and  _543
REMARK  228  A    between atoms: _542  and  _545
REMARK  229  A    between atoms: _545  and  _546
REMARK  230  A    between atoms: _548  and  _550
REMARK  231  A    between atoms: _550  and  _551
REMARK  232  A    between atoms: _550  and  _553
REMARK  233  A    between atoms: _553  and  _554
REMARK  234  A    between atoms: _559  and  _560
REMARK  235  A    between atoms: _562  and  _564
REMARK  236  A    between atoms: _564  and  _565
REMARK  237  A    between atoms: _568  and  _570
REMARK  238  A    between atoms: _570  and  _571
REMARK  239  A    between atoms: _574  and  _576
REMARK  240  A    between atoms: _576  and  _577
REMARK  241  A    between atoms: _576  and  _579
REMARK  242  A    between atoms: _579  and  _580
REMARK  243  A    between atoms: _580  and  _581
REMARK  244  A    between atoms: _581  and  _582
REMARK  245  A    between atoms: _591  and  _593
REMARK  246  A    between atoms: _593  and  _594
REMARK  247  A    between atoms: _593  and  _596
REMARK  248  A    between atoms: _599  and  _601
REMARK  249  A    between atoms: _601  and  _602
REMARK  250  A    between atoms: _604  and  _606
REMARK  251  A    between atoms: _606  and  _607
REMARK  252  A    between atoms: _606  and  _609
REMARK  253  A    between atoms: _609  and  _610
REMARK  254  A    between atoms: _613  and  _615
REMARK  255  A    between atoms: _615  and  _616
REMARK  256  A    between atoms: _619  and  _621
REMARK  257  A    between atoms: _621  and  _622
REMARK  258  A    between atoms: _621  and  _624
REMARK  259  A    between atoms: _624  and  _625
REMARK  260  A    between atoms: _628  and  _630
REMARK  261  A    between atoms: _630  and  _631
REMARK  262  A    between atoms: _630  and  _633
REMARK  263  A    between atoms: _633  and  _634
REMARK  264  A    between atoms: _639  and  _640
REMARK  265  A    between atoms: _642  and  _644
REMARK  266  A    between atoms: _644  and  _645
REMARK  267  A    between atoms: _644  and  _647
REMARK  268  A    between atoms: _647  and  _648
REMARK  269  A    between atoms: _648  and  _649
REMARK  270  A    between atoms: _651  and  _653
REMARK  271  A    between atoms: _653  and  _654
REMARK  272  A    between atoms: _653  and  _656
REMARK  273  A    between atoms: _656  and  _657
REMARK  274  A    between atoms: _657  and  _658
REMARK  275  A    between atoms: _661  and  _663
REMARK  276  A    between atoms: _663  and  _664
REMARK  277  A    between atoms: _663  and  _666
REMARK  278  A    between atoms: _666  and  _667
REMARK  279  A    between atoms: _673  and  _675
REMARK  280  A    between atoms: _675  and  _676
REMARK  281  A    between atoms: _675  and  _678
REMARK  282  A    between atoms: _678  and  _679
REMARK  283  A    between atoms: _684  and  _686
REMARK  284  A    between atoms: _686  and  _687
REMARK  285  A    between atoms: _686  and  _689
REMARK  286  A    between atoms: _689  and  _690
REMARK  287  A    between atoms: _700  and  _702
REMARK  288  A    between atoms: _702  and  _703
REMARK  289  A    between atoms: _702  and  _705
REMARK  290  A    between atoms: _708  and  _710
REMARK  291  A    between atoms: _710  and  _711
REMARK  292  A    between atoms: _710  and  _713
REMARK  293  A    between atoms: _713  and  _714
REMARK  294  A    between atoms: _717  and  _719
REMARK  295  A    between atoms: _719  and  _720
REMARK  296  A    between atoms: _719  and  _722
REMARK  297  A    between atoms: _722  and  _723
REMARK  298  A    between atoms: _723  and  _724
REMARK  299  A    between atoms: _726  and  _728
REMARK  300  A    between atoms: _728  and  _729
REMARK  301  A    between atoms: _728  and  _731
REMARK  302  A    between atoms: _731  and  _732
REMARK  303  A    between atoms: _735  and  _737
REMARK  304  A    between atoms: _737  and  _738
REMARK  305  A    between atoms: _737  and  _740
REMARK  306  A    between atoms: _740  and  _741
REMARK  307  A    between atoms: _744  and  _746
REMARK  308  A    between atoms: _746  and  _747
REMARK  309  A    between atoms: _746  and  _749
REMARK  310  A    between atoms: _749  and  _750
REMARK  311  A    between atoms: _753  and  _755
REMARK  312  A    between atoms: _755  and  _756
REMARK  313  A    between atoms: _755  and  _758
REMARK  314  A    between atoms: _758  and  _759
REMARK  315  A    between atoms: _762  and  _764
REMARK  316  A    between atoms: _764  and  _765
REMARK  317  A    between atoms: _767  and  _769
REMARK  318  A    between atoms: _769  and  _770
REMARK  319  A    between atoms: _769  and  _772
REMARK  320  A    between atoms: _772  and  _773
REMARK  321  A    between atoms: _775  and  _777
REMARK  322  A    between atoms: _777  and  _778
REMARK  323  A    between atoms: _777  and  _780
REMARK  324  A    between atoms: _780  and  _781
REMARK  325  A    between atoms: _791  and  _793
REMARK  326  A    between atoms: _793  and  _794
REMARK  327  A    between atoms: _793  and  _796
REMARK  328  A    between atoms: _796  and  _797
REMARK  329  A    between atoms: _799  and  _801
REMARK  330  A    between atoms: _801  and  _802
REMARK  331  A    between atoms: _801  and  _804
REMARK  332  A    between atoms: _804  and  _805
REMARK  333  A    between atoms: _808  and  _810
REMARK  334  A    between atoms: _810  and  _811
REMARK  335  A    between atoms: _814  and  _816
REMARK  336  A    between atoms: _816  and  _817
REMARK  337  A    between atoms: _816  and  _819
REMARK  338  A    between atoms: _819  and  _820
REMARK  339  A    between atoms: _822  and  _824
REMARK  340  A    between atoms: _824  and  _825
REMARK  341  A    between atoms: _824  and  _827
REMARK  342  A    between atoms: _827  and  _828
REMARK  343  A    between atoms: _828  and  _829
REMARK  344  A    between atoms: _832  and  _834
REMARK  345  A    between atoms: _834  and  _835
REMARK  346  A    between atoms: _834  and  _837
REMARK  347  A    between atoms: _837  and  _838
REMARK  348  A    between atoms: _840  and  _842
REMARK  349  A    between atoms: _842  and  _843
REMARK  350  A    between atoms: _842  and  _845
REMARK  351  A    between atoms: _845  and  _846
REMARK  352  A    between atoms: _846  and  _847
REMARK  353  A    between atoms: _852  and  _854
REMARK  354  A    between atoms: _854  and  _855
REMARK  355  A    between atoms: _854  and  _857
REMARK  356  A    between atoms: _857  and  _858
REMARK  357  A    between atoms: _858  and  _859
REMARK  358  A    between atoms: _864  and  _866
REMARK  359  A    between atoms: _866  and  _867
REMARK  360  A    between atoms: _866  and  _869
REMARK  361  A    between atoms: _869  and  _870
REMARK  362  A    between atoms: _873  and  _875
REMARK  363  A    between atoms: _875  and  _876
REMARK  364  A    between atoms: _875  and  _878
REMARK  365  A    between atoms: _878  and  _879
REMARK  366  A    between atoms: _882  and  _884
REMARK  367  A    between atoms: _884  and  _885
REMARK  368  A    between atoms: _884  and  _887
REMARK  369  A    between atoms: _887  and  _888
REMARK  370  A    between atoms: _895  and  _896
REMARK  371  A    between atoms: _901  and  _903
REMARK  372  A    between atoms: _903  and  _904
REMARK  373  A    between atoms: _903  and  _906
REMARK  374  A    between atoms: _906  and  _907
REMARK  375  A    between atoms: _912  and  _913
REMARK  376  A    between atoms: _915  and  _917
REMARK  377  A    between atoms: _917  and  _918
REMARK  378  A    between atoms: _917  and  _920
REMARK  379  A    between atoms: _920  and  _921
REMARK  380  A    between atoms: _926  and  _928
REMARK  381  A    between atoms: _928  and  _929
REMARK  382  A    between atoms: _928  and  _931
REMARK  383  A    between atoms: _931  and  _932
REMARK  384  A    between atoms: _938  and  _940
REMARK  385  A    between atoms: _940  and  _941
REMARK  386  A    between atoms: _940  and  _943
REMARK  387  A    between atoms: _943  and  _944
REMARK  388  A    between atoms: _947  and  _949
REMARK  389  A    between atoms: _949  and  _950
REMARK  390  A    between atoms: _949  and  _952
REMARK  391  A    between atoms: _952  and  _953
REMARK  392  A    between atoms: _958  and  _960
REMARK  393  A    between atoms: _960  and  _961
REMARK  394  A    between atoms: _960  and  _963
REMARK  395  A    between atoms: _963  and  _964
REMARK  396  A    between atoms: _970  and  _972
REMARK  397  A    between atoms: _972  and  _973
REMARK  398  A    between atoms: _972  and  _975
REMARK  399  A    between atoms: _975  and  _976
REMARK  400  A    between atoms: _976  and  _977
REMARK  401  A    between atoms: _979  and  _981
REMARK  402  A    between atoms: _981  and  _982
REMARK  403  A    between atoms: _981  and  _984
REMARK  404  A    between atoms: _984  and  _985
REMARK  405  A    between atoms: _988  and  _990
REMARK  406  A    between atoms: _990  and  _991
REMARK  407  A    between atoms: _990  and  _993
REMARK  408  A    between atoms: _993  and  _994
REMARK  409  A    between atoms: _999  and  _1001
REMARK  410  A    between atoms: _1001  and  _1002
REMARK  411  A    between atoms: _1001  and  _1004
REMARK  412  A    between atoms: _1004  and  _1005
REMARK  413  A    between atoms: _1010  and  _1011
REMARK                            x       y       z     vdW  Elec       q    Type
REMARK                         _______ _______ _______ _____ _____    ______ ____
ROOT
ATOM      1  CA  MET A   4     -20.571 -20.901  22.155  0.00  0.00    +0.149 C 
ENDROOT
BRANCH   1   3
ATOM      2  C   PHE A   3     -21.245 -21.015  19.834  0.00  0.00    +0.241 C 
ATOM      3  N   MET A   4     -20.876 -20.278  20.875  0.00  0.00    -0.297 N 
ATOM      4  H   MET A   4     -20.804 -19.245  20.775  0.00  0.00    +0.150 HD
ATOM      5  O   PHE A   3     -21.379 -22.238  19.898  0.00  0.00    -0.273 OA
BRANCH   2   6
ATOM      6  CA  PHE A   3     -21.492 -20.277  18.525  0.00  0.00    +0.153 C 
BRANCH   6   8
ATOM      7  C   ASN A   2     -19.878 -21.107  16.891  0.00  0.00    +0.241 C 
ATOM      8  N   PHE A   3     -21.068 -21.192  17.478  0.00  0.00    -0.297 N 
ATOM      9  H   PHE A   3     -21.721 -21.943  17.176  0.00  0.00    +0.150 HD
ATOM     10  O   ASN A   2     -19.207 -20.075  16.845  0.00  0.00    -0.273 OA
BRANCH   7  11
ATOM     11  CA  ASN A   2     -19.390 -22.393  16.248  0.00  0.00    +0.158 C 
BRANCH  11  13
ATOM     12  C   THR A   1     -19.004 -22.931  13.908  0.00  0.00    +0.241 C 
ATOM     13  N   ASN A   2     -18.666 -22.237  14.992  0.00  0.00    -0.297 N 
ATOM     14  H   ASN A   2     -17.870 -21.570  14.942  0.00  0.00    +0.150 HD
ATOM     15  O   THR A   1     -20.028 -23.615  13.840  0.00  0.00    -0.274 OA
BRANCH  12  16
ATOM     16  CA  THR A   1     -18.060 -22.830  12.709  0.00  0.00    +0.172 C 
BRANCH  16  17
ATOM     17  N   THR A   1     -18.189 -21.537  12.047  0.00  0.00    -0.236 NA
ATOM     18  H   THR A   1     -17.700 -20.711  12.448  0.00  0.00    +0.142 HD
ENDBRANCH  16  17
BRANCH  16  19
ATOM     19  CB  THR A   1     -16.595 -23.120  13.143  0.00  0.00    +0.135 C 
ATOM     20  CG2 THR A   1     -16.430 -24.569  13.579  0.00  0.00    +0.034 C 
BRANCH  19  21
ATOM     21  OG1 THR A   1     -15.702 -22.852  12.055  0.00  0.00    -0.383 OA
ATOM     22  HG1 THR A   1     -14.772 -23.039  12.339  0.00  0.00    +0.210 HD
ENDBRANCH  19  21
ENDBRANCH  16  19
ENDBRANCH  12  16
ENDBRANCH  11  13
BRANCH  11  23
ATOM     23  CB  ASN A   2     -18.529 -23.149  17.267  0.00  0.00    +0.114 C 
BRANCH  23  24
ATOM     24  CG  ASN A   2     -18.416 -24.627  16.961  0.00  0.00    +0.222 C 
ATOM     25  ND2 ASN A   2     -17.274 -25.213  17.301  0.00  0.00    -0.329 N 
ATOM     26 HD21 ASN A   2     -16.515 -24.656  17.743  0.00  0.00    +0.145 HD
ATOM     27 HD22 ASN A   2     -17.138 -26.229  17.125  0.00  0.00    +0.145 HD
ATOM     28  OD1 ASN A   2     -19.345 -25.239  16.436  0.00  0.00    -0.275 OA
ENDBRANCH  23  24
ENDBRANCH  11  23
ENDBRANCH   7  11
ENDBRANCH   6   8
BRANCH   6  29
ATOM     29  CB  PHE A   3     -22.976 -19.922  18.394  0.00  0.00    +0.055 C 
BRANCH  29  30
ATOM     30  CG  PHE A   3     -23.336 -19.230  17.103  0.00  0.00    -0.020 A 
ATOM     31  CD2 PHE A   3     -22.569 -18.173  16.616  0.00  0.00    -0.004 A 
ATOM     32  CE2 PHE A   3     -22.909 -17.532  15.427  0.00  0.00    -0.000 A 
ATOM     33  CZ  PHE A   3     -24.037 -17.933  14.721  0.00  0.00    -0.000 A 
ATOM     34  CE1 PHE A   3     -24.817 -18.979  15.203  0.00  0.00    -0.000 A 
ATOM     35  CD1 PHE A   3     -24.465 -19.619  16.389  0.00  0.00    -0.004 A 
ENDBRANCH  29  30
ENDBRANCH   6  29
ENDBRANCH   2   6
ENDBRANCH   1   3
BRANCH   1  36
ATOM     36  C   MET A   4     -21.408 -20.334  23.295  0.00  0.00    +0.241 C 
ATOM     37  N   LEU A   5     -21.562 -21.138  24.343  0.00  0.00    -0.297 N 
ATOM     38  H   LEU A   5     -21.252 -22.127  24.258  0.00  0.00    +0.150 HD
ATOM     39  O   MET A   4     -21.915 -19.213  23.215  0.00  0.00    -0.273 OA
BRANCH  37  40
ATOM     40  CA  LEU A   5     -22.142 -20.702  25.600  0.00  0.00    +0.149 C 
BRANCH  40  41
ATOM     41  C   LEU A   5     -21.023 -20.718  26.635  0.00  0.00    +0.241 C 
ATOM     42  N   ASN A   6     -20.749 -19.560  27.235  0.00  0.00    -0.297 N 
ATOM     43  H   ASN A   6     -21.322 -18.724  27.002  0.00  0.00    +0.150 HD
ATOM     44  O   LEU A   5     -20.403 -21.760  26.866  0.00  0.00    -0.273 OA
BRANCH  42  45
ATOM     45  CA  ASN A   6     -19.666 -19.427  28.212  0.00  0.00    +0.158 C 
BRANCH  45  46
ATOM     46  C   ASN A   6     -20.101 -19.763  29.633  0.00  0.00    +0.241 C 
ATOM     47  N   TYR A   7     -19.225 -20.450  30.361  0.00  0.00    -0.298 N 
ATOM     48  H   TYR A   7     -18.343 -20.770  29.912  0.00  0.00    +0.150 HD
ATOM     49  O   ASN A   6     -21.201 -19.407  30.053  0.00  0.00    -0.273 OA
BRANCH  47  50
ATOM     50  CA  TYR A   7     -19.456 -20.771  31.767  0.00  0.00    +0.141 C 
BRANCH  50  51
ATOM     51  C   TYR A   7     -18.277 -20.322  32.630  0.00  0.00    +0.227 C 
ATOM     52  O   TYR A   7     -17.133 -20.310  32.172  0.00  0.00    -0.286 OA
ENDBRANCH  50  51
BRANCH  50  53
ATOM     53  CB  TYR A   7     -19.732 -22.271  31.953  0.00  0.00    +0.054 C 
BRANCH  53  54
ATOM     54  CG  TYR A   7     -18.531 -23.174  31.739  0.00  0.00    -0.020 A 
ATOM     55  CD2 TYR A   7     -17.729 -23.567  32.812  0.00  0.00    -0.001 A 
ATOM     56  CE2 TYR A   7     -16.628 -24.397  32.623  0.00  0.00    +0.036 A 
ATOM     57  CZ  TYR A   7     -16.323 -24.845  31.349  0.00  0.00    +0.134 A 
ATOM     58  CE1 TYR A   7     -17.105 -24.473  30.267  0.00  0.00    +0.036 A 
ATOM     59  CD1 TYR A   7     -18.204 -23.642  30.467  0.00  0.00    -0.001 A 
BRANCH  57  60
ATOM     60  OH  TYR A   7     -15.239 -25.668  31.156  0.00  0.00    -0.506 OA
ATOM     61  HH  TYR A   7     -14.602 -25.233  30.535  0.00  0.00    +0.292 HD
ENDBRANCH  57  60
ENDBRANCH  53  54
ENDBRANCH  50  53
ENDBRANCH  47  50
ENDBRANCH  45  46
BRANCH  45  62
ATOM     62  CB  ASN A   6     -19.059 -18.017  28.174  0.00  0.00    +0.114 C 
BRANCH  62  63
ATOM     63  CG  ASN A   6     -17.968 -17.863  27.117  0.00  0.00    +0.222 C 
ATOM     64  ND2 ASN A   6     -17.531 -16.628  26.906  0.00  0.00    -0.329 N 
ATOM     65 HD21 ASN A   6     -17.933 -15.835  27.445  0.00  0.00    +0.145 HD
ATOM     66 HD22 ASN A   6     -16.786 -16.453  26.201  0.00  0.00    +0.145 HD
ATOM     67  OD1 ASN A   6     -17.523 -18.837  26.503  0.00  0.00    -0.275 OA
ENDBRANCH  62  63
ENDBRANCH  45  62
ENDBRANCH  42  45
ENDBRANCH  40  41
BRANCH  40  68
ATOM     68  CB  LEU A   5     -23.277 -21.645  26.009  0.00  0.00    +0.029 C 
BRANCH  68  69
ATOM     69  CG  LEU A   5     -24.284 -21.216  27.081  0.00  0.00    +0.002 C 
ATOM     70  CD2 LEU A   5     -25.129 -22.408  27.496  0.00  0.00    +0.000 C 
ATOM     71  CD1 LEU A   5     -25.178 -20.094  26.579  0.00  0.00    +0.000 C 
ENDBRANCH  68  69
ENDBRANCH  40  68
ENDBRANCH  37  40
ENDBRANCH   1  36
BRANCH   1  72
ATOM     72  CB  MET A   4     -19.075 -20.780  22.471  0.00  0.00    +0.041 C 
BRANCH  72  73
ATOM     73  CG  MET A   4     -18.600 -21.717  23.571  0.00  0.00    +0.060 C 
BRANCH  73  74
ATOM     74  SD  MET A   4     -16.872 -21.485  24.003  0.00  0.00    -0.139 S 
ATOM     75  CE  MET A   4     -16.822 -22.251  25.624  0.00  0.00    +0.069 C 
ENDBRANCH  73  74
ENDBRANCH  72  73
ENDBRANCH   1  72
TORSDOF 30
REMARK  Name = ../refined-set-2016/3drg/3drg_pocket.pdb
REMARK  413 active torsions:
REMARK  status: ('A' for Active; 'I' for Inactive)
REMARK    1  A    between atoms: _1  and  _3
REMARK    2  A    between atoms: _3  and  _4
REMARK    3  A    between atoms: _3  and  _6
REMARK    4  A    between atoms: _6  and  _7
REMARK    5  A    between atoms: _12  and  _13
REMARK    6  A    between atoms: _15  and  _17
REMARK    7  A    between atoms: _17  and  _18
REMARK    8  A    between atoms: _17  and  _20
REMARK    9  A    between atoms: _20  and  _21
REMARK   10  A    between atoms: _21  and  _22
REMARK   11  A    between atoms: _27  and  _29
REMARK   12  A    between atoms: _29  and  _30
REMARK   13  A    between atoms: _29  and  _32
REMARK   14  A    between atoms: _32  and  _33
REMARK   15  A    between atoms: _35  and  _37
REMARK   16  A    between atoms: _37  and  _38
REMARK   17  A    between atoms: _37  and  _40
REMARK   18  A    between atoms: _40  and  _41
REMARK   19  A    between atoms: _44  and  _46
REMARK   20  A    between atoms: _46  and  _47
REMARK   21  A    between atoms: _46  and  _49
REMARK   22  A    between atoms: _49  and  _50
REMARK   23  A    between atoms: _52  and  _54
REMARK   24  A    between atoms: _54  and  _55
REMARK   25  A    between atoms: _54  and  _57
REMARK   26  A    between atoms: _57  and  _58
REMARK   27  A    between atoms: _61  and  _63
REMARK   28  A    between atoms: _63  and  _64
REMARK   29  A    between atoms: _63  and  _66
REMARK   30  A    between atoms: _66  and  _67
REMARK   31  A    between atoms: _69  and  _71
REMARK   32  A    between atoms: _71  and  _72
REMARK   33  A    between atoms: _74  and  _76
REMARK   34  A    between atoms: _76  and  _77
REMARK   35  A    between atoms: _76  and  _79
REMARK   36  A    between atoms: _79  and  _80
REMARK   37  A    between atoms: _82  and  _84
REMARK   38  A    between atoms: _84  and  _85
REMARK   39  A    between atoms: _84  and  _87
REMARK   40  A    between atoms: _87  and  _88
REMARK   41  A    between atoms: _93  and  _95
REMARK   42  A    between atoms: _95  and  _96
REMARK   43  A    between atoms: _95  and  _98
REMARK   44  A    between atoms: _98  and  _99
REMARK   45  A    between atoms: _102  and  _104
REMARK   46  A    between atoms: _104  and  _105
REMARK   47  A    between atoms: _108  and  _110
REMARK   48  A    between atoms: _110  and  _111
REMARK   49  A    between atoms: _110  and  _113
REMARK   50  A    between atoms: _113  and  _114
REMARK   51  A    between atoms: _117  and  _119
REMARK   52  A    between atoms: _119  and  _120
REMARK   53  A    between atoms: _119  and  _122
REMARK   54  A    between atoms: _122  and  _123
REMARK   55  A    between atoms: _129  and  _131
REMARK   56  A    between atoms: _131  and  _132
REMARK   57  A    between atoms: _135  and  _137
REMARK   58  A    between atoms: _137  and  _138
REMARK   59  A    between atoms: _137  and  _140
REMARK   60  A    between atoms: _140  and  _141
REMARK   61  A    between atoms: _144  and  _146
REMARK   62  A    between atoms: _146  and  _147
REMARK   63  A    between atoms: _146  and  _149
REMARK   64  A    between atoms: _149  and  _150
REMARK   65  A    between atoms: _152  and  _154
REMARK   66  A    between atoms: _154  and  _155
REMARK   67  A    between atoms: _157  and  _159
REMARK   68  A    between atoms: _159  and  _160
REMARK   69  A    between atoms: _162  and  _164
REMARK   70  A    between atoms: _164  and  _165
REMARK   71  A    between atoms: _164  and  _167
REMARK   72  A    between atoms: _167  and  _168
REMARK   73  A    between atoms: _168  and  _169
REMARK   74  A    between atoms: _174  and  _176
REMARK   75  A    between atoms: _176  and  _177
REMARK   76  A    between atoms: _176  and  _179
REMARK   77  A    between atoms: _179  and  _180
REMARK   78  A    between atoms: _183  and  _185
REMARK   79  A    between atoms: _185  and  _186
REMARK   80  A    between atoms: _188  and  _190
REMARK   81  A    between atoms: _190  and  _191
REMARK   82  A    between atoms: _190  and  _193
REMARK   83  A    between atoms: _193  and  _194
REMARK   84  A    between atoms: _197  and  _199
REMARK   85  A    between atoms: _199  and  _200
REMARK   86  A    between atoms: _199  and  _202
REMARK   87  A    between atoms: _202  and  _203
REMARK   88  A    between atoms: _209  and  _211
REMARK   89  A    between atoms: _211  and  _212
REMARK   90  A    between atoms: _211  and  _214
REMARK   91  A    between atoms: _214  and  _215
REMARK   92  A    between atoms: _218  and  _220
REMARK   93  A    between atoms: _220  and  _221
REMARK   94  A    between atoms: _220  and  _223
REMARK   95  A    between atoms: _223  and  _224
REMARK   96  A    between atoms: _230  and  _232
REMARK   97  A    between atoms: _232  and  _233
REMARK   98  A    between atoms: _232  and  _235
REMARK   99  A    between atoms: _235  and  _236
REMARK  100  A    between atoms: _242  and  _244
REMARK  101  A    between atoms: _244  and  _245
REMARK  102  A    between atoms: _244  and  _247
REMARK  103  A    between atoms: _247  and  _248
REMARK  104  A    between atoms: _251  and  _253
REMARK  105  A    between atoms: _253  and  _254
REMARK  106  A    between atoms: _253  and  _256
REMARK  107  A    between atoms: _256  and  _257
REMARK  108  A    between atoms: _260  and  _262
REMARK  109  A    between atoms: _262  and  _263
REMARK  110  A    between atoms: _262  and  _265
REMARK  111  A    between atoms: _265  and  _266
REMARK  112  A    between atoms: _266  and  _267
REMARK  113  A    between atoms: _267  and  _268
REMARK  114  A    between atoms: _277  and  _279
REMARK  115  A    between atoms: _279  and  _280
REMARK  116  A    between atoms: _279  and  _282
REMARK  117  A    between atoms: _282  and  _283
REMARK  118  A    between atoms: _286  and  _288
REMARK  119  A    between atoms: _288  and  _289
REMARK  120  A    between atoms: _288  and  _291
REMARK  121  A    between atoms: _291  and  _292
REMARK  122  A    between atoms: _292  and  _293
REMARK  123  A    between atoms: _298  and  _300
REMARK  124  A    between atoms: _300  and  _301
REMARK  125  A    between atoms: _300  and  _303
REMARK  126  A    between atoms: _303  and  _304
REMARK  127  A    between atoms: _306  and  _308
REMARK  128  A    between atoms: _308  and  _309
REMARK  129  A    between atoms: _311  and  _313
REMARK  130  A    between atoms: _313  and  _314
REMARK  131  A    between atoms: _313  and  _316
REMARK  132  A    between atoms: _316  and  _317
REMARK  133  A    between atoms: _322  and  _324
REMARK  134  A    between atoms: _324  and  _325
REMARK  135  A    between atoms: _327  and  _329
REMARK  136  A    between atoms: _329  and  _330
REMARK  137  A    between atoms: _329  and  _332
REMARK  138  A    between atoms: _332  and  _333
REMARK  139  A    between atoms: _339  and  _341
REMARK  140  A    between atoms: _341  and  _342
REMARK  141  A    between atoms: _341  and  _344
REMARK  142  A    between atoms: _344  and  _345
REMARK  143  A    between atoms: _348  and  _350
REMARK  144  A    between atoms: _350  and  _351
REMARK  145  A    between atoms: _350  and  _353
REMARK  146  A    between atoms: _353  and  _354
REMARK  147  A    between atoms: _354  and  _355
REMARK  148  A    between atoms: _358  and  _360
REMARK  149  A    between atoms: _360  and  _361
REMARK  150  A    between atoms: _360  and  _363
REMARK  151  A    between atoms: _363  and  _364
REMARK  152  A    between atoms: _367  and  _369
REMARK  153  A    between atoms: _369  and  _370
REMARK  154  A    between atoms: _369  and  _372
REMARK  155  A    between atoms: _375  and  _377
REMARK  156  A    between atoms: _377  and  _378
REMARK  157  A    between atoms: _377  and  _380
REMARK  158  A    between atoms: _380  and  _381
REMARK  159  A    between atoms: _384  and  _386
REMARK  160  A    between atoms: _386  and  _387
REMARK  161  A    between atoms: _386  and  _389
REMARK  162  A    between atoms: _389  and  _390
REMARK  163  A    between atoms: _395  and  _397
REMARK  164  A    between atoms: _397  and  _398
REMARK  165  A    between atoms: _400  and  _402
REMARK  166  A    between atoms: _402  and  _403
REMARK  167  A    between atoms: _402  and  _405
REMARK  168  A    between atoms: _405  and  _406
REMARK  169  A    between atoms: _406  and  _407
REMARK  170  A    between atoms: _409  and  _411
REMARK  171  A    between atoms: _411  and  _412
REMARK  172  A    between atoms: _411  and  _414
REMARK  173  A    between atoms: _417  and  _419
REMARK  174  A    between atoms: _419  and  _420
REMARK  175  A    between atoms: _419  and  _422
REMARK  176  A    between atoms: _422  and  _423
REMARK  177  A    between atoms: _425  and  _427
REMARK  178  A    between atoms: _427  and  _428
REMARK  179  A    between atoms: _427  and  _430
REMARK  180  A    between atoms: _430  and  _431
REMARK  181  A    between atoms: _433  and  _435
REMARK  182  A    between atoms: _435  and  _436
REMARK  183  A    between atoms: _435  and  _438
REMARK  184  A    between atoms: _438  and  _439
REMARK  185  A    between atoms: _439  and  _440
REMARK  186  A    between atoms: _445  and  _447
REMARK  187  A    between atoms: _447  and  _448
REMARK  188  A    between atoms: _451  and  _453
REMARK  189  A    between atoms: _453  and  _454
REMARK  190  A    between atoms: _453  and  _456
REMARK  191  A    between atoms: _456  and  _457
REMARK  192  A    between atoms: _457  and  _458
REMARK  193  A    between atoms: _460  and  _462
REMARK  194  A    between atoms: _462  and  _463
REMARK  195  A    between atoms: _462  and  _465
REMARK  196  A    between atoms: _465  and  _466
REMARK  197  A    between atoms: _471  and  _472
REMARK  198  A    between atoms: _474  and  _476
REMARK  199  A    between atoms: _476  and  _477
REMARK  200  A    between atoms: _476  and  _479
REMARK  201  A    between atoms: _479  and  _480
REMARK  202  A    between atoms: _483  and  _485
REMARK  203  A    between atoms: _485  and  _486
REMARK  204  A    between atoms: _485  and  _488
REMARK  205  A    between atoms: _488  and  _489
REMARK  206  A    between atoms: _491  and  _493
REMARK  207  A    between atoms: _493  and  _494
REMARK  208  A    between atoms: _493  and  _496
REMARK  209  A    between atoms: _496  and  _497
REMARK  210  A    between atoms: _500  and  _502
REMARK  211  A    between atoms: _502  and  _503
REMARK  212  A    between atoms: _502  and  _505
REMARK  213  A    between atoms: _505  and  _506
REMARK  214  A    between atoms: _506  and  _507
REMARK  215  A    between atoms: _509  and  _511
REMARK  216  A    between atoms: _511  and  _512
REMARK  217  A    between atoms: _511  and  _514
REMARK  218  A    between atoms: _514  and  _515
REMARK  219  A    between atoms: _520  and  _521
REMARK  220  A    between atoms: _523  and  _525
REMARK  221  A    between atoms: _525  and  _526
REMARK  222  A    between atoms: _525  and  _528
REMARK  223  A    between atoms: _528  and  _529
REMARK  224  A    between atoms: _529  and  _530
REMARK  225  A    between atoms: _530  and  _531
REMARK  226  A    between atoms: _540  and  _542
REMARK  227  A    between atoms: _542  and  _543
REMARK  228  A    between atoms: _542  and  _545
REMARK  229  A    between atoms: _545  and  _546
REMARK  230  A    between atoms: _548  and  _550
REMARK  231  A    between atoms: _550  and  _551
REMARK  232  A    between atoms: _550  and  _553
REMARK  233  A    between atoms: _553  and  _554
REMARK  234  A    between atoms: _559  and  _560
REMARK  235  A    between atoms: _562  and  _564
REMARK  236  A    between atoms: _564  and  _565
REMARK  237  A    between atoms: _568  and  _570
REMARK  238  A    between atoms: _570  and  _571
REMARK  239  A    between atoms: _574  and  _576
REMARK  240  A    between atoms: _576  and  _577
REMARK  241  A    between atoms: _576  and  _579
REMARK  242  A    between atoms: _579  and  _580
REMARK  243  A    between atoms: _580  and  _581
REMARK  244  A    between atoms: _581  and  _582
REMARK  245  A    between atoms: _591  and  _593
REMARK  246  A    between atoms: _593  and  _594
REMARK  247  A    between atoms: _593  and  _596
REMARK  248  A    between atoms: _599  and  _601
REMARK  249  A    between atoms: _601  and  _602
REMARK  250  A    between atoms: _604  and  _606
REMARK  251  A    between atoms: _606  and  _607
REMARK  252  A    between atoms: _606  and  _609
REMARK  253  A    between atoms: _609  and  _610
REMARK  254  A    between atoms: _613  and  _615
REMARK  255  A    between atoms: _615  and  _616
REMARK  256  A    between atoms: _619  and  _621
REMARK  257  A    between atoms: _621  and  _622
REMARK  258  A    between atoms: _621  and  _624
REMARK  259  A    between atoms: _624  and  _625
REMARK  260  A    between atoms: _628  and  _630
REMARK  261  A    between atoms: _630  and  _631
REMARK  262  A    between atoms: _630  and  _633
REMARK  263  A    between atoms: _633  and  _634
REMARK  264  A    between atoms: _639  and  _640
REMARK  265  A    between atoms: _642  and  _644
REMARK  266  A    between atoms: _644  and  _645
REMARK  267  A    between atoms: _644  and  _647
REMARK  268  A    between atoms: _647  and  _648
REMARK  269  A    between atoms: _648  and  _649
REMARK  270  A    between atoms: _651  and  _653
REMARK  271  A    between atoms: _653  and  _654
REMARK  272  A    between atoms: _653  and  _656
REMARK  273  A    between atoms: _656  and  _657
REMARK  274  A    between atoms: _657  and  _658
REMARK  275  A    between atoms: _661  and  _663
REMARK  276  A    between atoms: _663  and  _664
REMARK  277  A    between atoms: _663  and  _666
REMARK  278  A    between atoms: _666  and  _667
REMARK  279  A    between atoms: _673  and  _675
REMARK  280  A    between atoms: _675  and  _676
REMARK  281  A    between atoms: _675  and  _678
REMARK  282  A    between atoms: _678  and  _679
REMARK  283  A    between atoms: _684  and  _686
REMARK  284  A    between atoms: _686  and  _687
REMARK  285  A    between atoms: _686  and  _689
REMARK  286  A    between atoms: _689  and  _690
REMARK  287  A    between atoms: _700  and  _702
REMARK  288  A    between atoms: _702  and  _703
REMARK  289  A    between atoms: _702  and  _705
REMARK  290  A    between atoms: _708  and  _710
REMARK  291  A    between atoms: _710  and  _711
REMARK  292  A    between atoms: _710  and  _713
REMARK  293  A    between atoms: _713  and  _714
REMARK  294  A    between atoms: _717  and  _719
REMARK  295  A    between atoms: _719  and  _720
REMARK  296  A    between atoms: _719  and  _722
REMARK  297  A    between atoms: _722  and  _723
REMARK  298  A    between atoms: _723  and  _724
REMARK  299  A    between atoms: _726  and  _728
REMARK  300  A    between atoms: _728  and  _729
REMARK  301  A    between atoms: _728  and  _731
REMARK  302  A    between atoms: _731  and  _732
REMARK  303  A    between atoms: _735  and  _737
REMARK  304  A    between atoms: _737  and  _738
REMARK  305  A    between atoms: _737  and  _740
REMARK  306  A    between atoms: _740  and  _741
REMARK  307  A    between atoms: _744  and  _746
REMARK  308  A    between atoms: _746  and  _747
REMARK  309  A    between atoms: _746  and  _749
REMARK  310  A    between atoms: _749  and  _750
REMARK  311  A    between atoms: _753  and  _755
REMARK  312  A    between atoms: _755  and  _756
REMARK  313  A    between atoms: _755  and  _758
REMARK  314  A    between atoms: _758  and  _759
REMARK  315  A    between atoms: _762  and  _764
REMARK  316  A    between atoms: _764  and  _765
REMARK  317  A    between atoms: _767  and  _769
REMARK  318  A    between atoms: _769  and  _770
REMARK  319  A    between atoms: _769  and  _772
REMARK  320  A    between atoms: _772  and  _773
REMARK  321  A    between atoms: _775  and  _777
REMARK  322  A    between atoms: _777  and  _778
REMARK  323  A    between atoms: _777  and  _780
REMARK  324  A    between atoms: _780  and  _781
REMARK  325  A    between atoms: _791  and  _793
REMARK  326  A    between atoms: _793  and  _794
REMARK  327  A    between atoms: _793  and  _796
REMARK  328  A    between atoms: _796  and  _797
REMARK  329  A    between atoms: _799  and  _801
REMARK  330  A    between atoms: _801  and  _802
REMARK  331  A    between atoms: _801  and  _804
REMARK  332  A    between atoms: _804  and  _805
REMARK  333  A    between atoms: _808  and  _810
REMARK  334  A    between atoms: _810  and  _811
REMARK  335  A    between atoms: _814  and  _816
REMARK  336  A    between atoms: _816  and  _817
REMARK  337  A    between atoms: _816  and  _819
REMARK  338  A    between atoms: _819  and  _820
REMARK  339  A    between atoms: _822  and  _824
REMARK  340  A    between atoms: _824  and  _825
REMARK  341  A    between atoms: _824  and  _827
REMARK  342  A    between atoms: _827  and  _828
REMARK  343  A    between atoms: _828  and  _829
REMARK  344  A    between atoms: _832  and  _834
REMARK  345  A    between atoms: _834  and  _835
REMARK  346  A    between atoms: _834  and  _837
REMARK  347  A    between atoms: _837  and  _838
REMARK  348  A    between atoms: _840  and  _842
REMARK  349  A    between atoms: _842  and  _843
REMARK  350  A    between atoms: _842  and  _845
REMARK  351  A    between atoms: _845  and  _846
REMARK  352  A    between atoms: _846  and  _847
REMARK  353  A    between atoms: _852  and  _854
REMARK  354  A    between atoms: _854  and  _855
REMARK  355  A    between atoms: _854  and  _857
REMARK  356  A    between atoms: _857  and  _858
REMARK  357  A    between atoms: _858  and  _859
REMARK  358  A    between atoms: _864  and  _866
REMARK  359  A    between atoms: _866  and  _867
REMARK  360  A    between atoms: _866  and  _869
REMARK  361  A    between atoms: _869  and  _870
REMARK  362  A    between atoms: _873  and  _875
REMARK  363  A    between atoms: _875  and  _876
REMARK  364  A    between atoms: _875  and  _878
REMARK  365  A    between atoms: _878  and  _879
REMARK  366  A    between atoms: _882  and  _884
REMARK  367  A    between atoms: _884  and  _885
REMARK  368  A    between atoms: _884  and  _887
REMARK  369  A    between atoms: _887  and  _888
REMARK  370  A    between atoms: _895  and  _896
REMARK  371  A    between atoms: _901  and  _903
REMARK  372  A    between atoms: _903  and  _904
REMARK  373  A    between atoms: _903  and  _906
REMARK  374  A    between atoms: _906  and  _907
REMARK  375  A    between atoms: _912  and  _913
REMARK  376  A    between atoms: _915  and  _917
REMARK  377  A    between atoms: _917  and  _918
REMARK  378  A    between atoms: _917  and  _920
REMARK  379  A    between atoms: _920  and  _921
REMARK  380  A    between atoms: _926  and  _928
REMARK  381  A    between atoms: _928  and  _929
REMARK  382  A    between atoms: _928  and  _931
REMARK  383  A    between atoms: _931  and  _932
REMARK  384  A    between atoms: _938  and  _940
REMARK  385  A    between atoms: _940  and  _941
REMARK  386  A    between atoms: _940  and  _943
REMARK  387  A    between atoms: _943  and  _944
REMARK  388  A    between atoms: _947  and  _949
REMARK  389  A    between atoms: _949  and  _950
REMARK  390  A    between atoms: _949  and  _952
REMARK  391  A    between atoms: _952  and  _953
REMARK  392  A    between atoms: _958  and  _960
REMARK  393  A    between atoms: _960  and  _961
REMARK  394  A    between atoms: _960  and  _963
REMARK  395  A    between atoms: _963  and  _964
REMARK  396  A    between atoms: _970  and  _972
REMARK  397  A    between atoms: _972  and  _973
REMARK  398  A    between atoms: _972  and  _975
REMARK  399  A    between atoms: _975  and  _976
REMARK  400  A    between atoms: _976  and  _977
REMARK  401  A    between atoms: _979  and  _981
REMARK  402  A    between atoms: _981  and  _982
REMARK  403  A    between atoms: _981  and  _984
REMARK  404  A    between atoms: _984  and  _985
REMARK  405  A    between atoms: _988  and  _990
REMARK  406  A    between atoms: _990  and  _991
REMARK  407  A    between atoms: _990  and  _993
REMARK  408  A    between atoms: _993  and  _994
REMARK  409  A    between atoms: _999  and  _1001
REMARK  410  A    between atoms: _1001  and  _1002
REMARK  411  A    between atoms: _1001  and  _1004
REMARK  412  A    between atoms: _1004  and  _1005
REMARK  413  A    between atoms: _1010  and  _1011
REMARK                            x       y       z     vdW  Elec       q    Type
REMARK                         _______ _______ _______ _____ _____    ______ ____
ROOT
ATOM      1  O   HOH     1      -7.681  -4.075  11.873  0.00  0.00    +0.000 OA
ENDROOT
TORSDOF 0
REMARK  Name = ../refined-set-2016/3drg/3drg_pocket.pdb
REMARK  413 active torsions:
REMARK  status: ('A' for Active; 'I' for Inactive)
REMARK    1  A    between atoms: _1  and  _3
REMARK    2  A    between atoms: _3  and  _4
REMARK    3  A    between atoms: _3  and  _6
REMARK    4  A    between atoms: _6  and  _7
REMARK    5  A    between atoms: _12  and  _13
REMARK    6  A    between atoms: _15  and  _17
REMARK    7  A    between atoms: _17  and  _18
REMARK    8  A    between atoms: _17  and  _20
REMARK    9  A    between atoms: _20  and  _21
REMARK   10  A    between atoms: _21  and  _22
REMARK   11  A    between atoms: _27  and  _29
REMARK   12  A    between atoms: _29  and  _30
REMARK   13  A    between atoms: _29  and  _32
REMARK   14  A    between atoms: _32  and  _33
REMARK   15  A    between atoms: _35  and  _37
REMARK   16  A    between atoms: _37  and  _38
REMARK   17  A    between atoms: _37  and  _40
REMARK   18  A    between atoms: _40  and  _41
REMARK   19  A    between atoms: _44  and  _46
REMARK   20  A    between atoms: _46  and  _47
REMARK   21  A    between atoms: _46  and  _49
REMARK   22  A    between atoms: _49  and  _50
REMARK   23  A    between atoms: _52  and  _54
REMARK   24  A    between atoms: _54  and  _55
REMARK   25  A    between atoms: _54  and  _57
REMARK   26  A    between atoms: _57  and  _58
REMARK   27  A    between atoms: _61  and  _63
REMARK   28  A    between atoms: _63  and  _64
REMARK   29  A    between atoms: _63  and  _66
REMARK   30  A    between atoms: _66  and  _67
REMARK   31  A    between atoms: _69  and  _71
REMARK   32  A    between atoms: _71  and  _72
REMARK   33  A    between atoms: _74  and  _76
REMARK   34  A    between atoms: _76  and  _77
REMARK   35  A    between atoms: _76  and  _79
REMARK   36  A    between atoms: _79  and  _80
REMARK   37  A    between atoms: _82  and  _84
REMARK   38  A    between atoms: _84  and  _85
REMARK   39  A    between atoms: _84  and  _87
REMARK   40  A    between atoms: _87  and  _88
REMARK   41  A    between atoms: _93  and  _95
REMARK   42  A    between atoms: _95  and  _96
REMARK   43  A    between atoms: _95  and  _98
REMARK   44  A    between atoms: _98  and  _99
REMARK   45  A    between atoms: _102  and  _104
REMARK   46  A    between atoms: _104  and  _105
REMARK   47  A    between atoms: _108  and  _110
REMARK   48  A    between atoms: _110  and  _111
REMARK   49  A    between atoms: _110  and  _113
REMARK   50  A    between atoms: _113  and  _114
REMARK   51  A    between atoms: _117  and  _119
REMARK   52  A    between atoms: _119  and  _120
REMARK   53  A    between atoms: _119  and  _122
REMARK   54  A    between atoms: _122  and  _123
REMARK   55  A    between atoms: _129  and  _131
REMARK   56  A    between atoms: _131  and  _132
REMARK   57  A    between atoms: _135  and  _137
REMARK   58  A    between atoms: _137  and  _138
REMARK   59  A    between atoms: _137  and  _140
REMARK   60  A    between atoms: _140  and  _141
REMARK   61  A    between atoms: _144  and  _146
REMARK   62  A    between atoms: _146  and  _147
REMARK   63  A    between atoms: _146  and  _149
REMARK   64  A    between atoms: _149  and  _150
REMARK   65  A    between atoms: _152  and  _154
REMARK   66  A    between atoms: _154  and  _155
REMARK   67  A    between atoms: _157  and  _159
REMARK   68  A    between atoms: _159  and  _160
REMARK   69  A    between atoms: _162  and  _164
REMARK   70  A    between atoms: _164  and  _165
REMARK   71  A    between atoms: _164  and  _167
REMARK   72  A    between atoms: _167  and  _168
REMARK   73  A    between atoms: _168  and  _169
REMARK   74  A    between atoms: _174  and  _176
REMARK   75  A    between atoms: _176  and  _177
REMARK   76  A    between atoms: _176  and  _179
REMARK   77  A    between atoms: _179  and  _180
REMARK   78  A    between atoms: _183  and  _185
REMARK   79  A    between atoms: _185  and  _186
REMARK   80  A    between atoms: _188  and  _190
REMARK   81  A    between atoms: _190  and  _191
REMARK   82  A    between atoms: _190  and  _193
REMARK   83  A    between atoms: _193  and  _194
REMARK   84  A    between atoms: _197  and  _199
REMARK   85  A    between atoms: _199  and  _200
REMARK   86  A    between atoms: _199  and  _202
REMARK   87  A    between atoms: _202  and  _203
REMARK   88  A    between atoms: _209  and  _211
REMARK   89  A    between atoms: _211  and  _212
REMARK   90  A    between atoms: _211  and  _214
REMARK   91  A    between atoms: _214  and  _215
REMARK   92  A    between atoms: _218  and  _220
REMARK   93  A    between atoms: _220  and  _221
REMARK   94  A    between atoms: _220  and  _223
REMARK   95  A    between atoms: _223  and  _224
REMARK   96  A    between atoms: _230  and  _232
REMARK   97  A    between atoms: _232  and  _233
REMARK   98  A    between atoms: _232  and  _235
REMARK   99  A    between atoms: _235  and  _236
REMARK  100  A    between atoms: _242  and  _244
REMARK  101  A    between atoms: _244  and  _245
REMARK  102  A    between atoms: _244  and  _247
REMARK  103  A    between atoms: _247  and  _248
REMARK  104  A    between atoms: _251  and  _253
REMARK  105  A    between atoms: _253  and  _254
REMARK  106  A    between atoms: _253  and  _256
REMARK  107  A    between atoms: _256  and  _257
REMARK  108  A    between atoms: _260  and  _262
REMARK  109  A    between atoms: _262  and  _263
REMARK  110  A    between atoms: _262  and  _265
REMARK  111  A    between atoms: _265  and  _266
REMARK  112  A    between atoms: _266  and  _267
REMARK  113  A    between atoms: _267  and  _268
REMARK  114  A    between atoms: _277  and  _279
REMARK  115  A    between atoms: _279  and  _280
REMARK  116  A    between atoms: _279  and  _282
REMARK  117  A    between atoms: _282  and  _283
REMARK  118  A    between atoms: _286  and  _288
REMARK  119  A    between atoms: _288  and  _289
REMARK  120  A    between atoms: _288  and  _291
REMARK  121  A    between atoms: _291  and  _292
REMARK  122  A    between atoms: _292  and  _293
REMARK  123  A    between atoms: _298  and  _300
REMARK  124  A    between atoms: _300  and  _301
REMARK  125  A    between atoms: _300  and  _303
REMARK  126  A    between atoms: _303  and  _304
REMARK  127  A    between atoms: _306  and  _308
REMARK  128  A    between atoms: _308  and  _309
REMARK  129  A    between atoms: _311  and  _313
REMARK  130  A    between atoms: _313  and  _314
REMARK  131  A    between atoms: _313  and  _316
REMARK  132  A    between atoms: _316  and  _317
REMARK  133  A    between atoms: _322  and  _324
REMARK  134  A    between atoms: _324  and  _325
REMARK  135  A    between atoms: _327  and  _329
REMARK  136  A    between atoms: _329  and  _330
REMARK  137  A    between atoms: _329  and  _332
REMARK  138  A    between atoms: _332  and  _333
REMARK  139  A    between atoms: _339  and  _341
REMARK  140  A    between atoms: _341  and  _342
REMARK  141  A    between atoms: _341  and  _344
REMARK  142  A    between atoms: _344  and  _345
REMARK  143  A    between atoms: _348  and  _350
REMARK  144  A    between atoms: _350  and  _351
REMARK  145  A    between atoms: _350  and  _353
REMARK  146  A    between atoms: _353  and  _354
REMARK  147  A    between atoms: _354  and  _355
REMARK  148  A    between atoms: _358  and  _360
REMARK  149  A    between atoms: _360  and  _361
REMARK  150  A    between atoms: _360  and  _363
REMARK  151  A    between atoms: _363  and  _364
REMARK  152  A    between atoms: _367  and  _369
REMARK  153  A    between atoms: _369  and  _370
REMARK  154  A    between atoms: _369  and  _372
REMARK  155  A    between atoms: _375  and  _377
REMARK  156  A    between atoms: _377  and  _378
REMARK  157  A    between atoms: _377  and  _380
REMARK  158  A    between atoms: _380  and  _381
REMARK  159  A    between atoms: _384  and  _386
REMARK  160  A    between atoms: _386  and  _387
REMARK  161  A    between atoms: _386  and  _389
REMARK  162  A    between atoms: _389  and  _390
REMARK  163  A    between atoms: _395  and  _397
REMARK  164  A    between atoms: _397  and  _398
REMARK  165  A    between atoms: _400  and  _402
REMARK  166  A    between atoms: _402  and  _403
REMARK  167  A    between atoms: _402  and  _405
REMARK  168  A    between atoms: _405  and  _406
REMARK  169  A    between atoms: _406  and  _407
REMARK  170  A    between atoms: _409  and  _411
REMARK  171  A    between atoms: _411  and  _412
REMARK  172  A    between atoms: _411  and  _414
REMARK  173  A    between atoms: _417  and  _419
REMARK  174  A    between atoms: _419  and  _420
REMARK  175  A    between atoms: _419  and  _422
REMARK  176  A    between atoms: _422  and  _423
REMARK  177  A    between atoms: _425  and  _427
REMARK  178  A    between atoms: _427  and  _428
REMARK  179  A    between atoms: _427  and  _430
REMARK  180  A    between atoms: _430  and  _431
REMARK  181  A    between atoms: _433  and  _435
REMARK  182  A    between atoms: _435  and  _436
REMARK  183  A    between atoms: _435  and  _438
REMARK  184  A    between atoms: _438  and  _439
REMARK  185  A    between atoms: _439  and  _440
REMARK  186  A    between atoms: _445  and  _447
REMARK  187  A    between atoms: _447  and  _448
REMARK  188  A    between atoms: _451  and  _453
REMARK  189  A    between atoms: _453  and  _454
REMARK  190  A    between atoms: _453  and  _456
REMARK  191  A    between atoms: _456  and  _457
REMARK  192  A    between atoms: _457  and  _458
REMARK  193  A    between atoms: _460  and  _462
REMARK  194  A    between atoms: _462  and  _463
REMARK  195  A    between atoms: _462  and  _465
REMARK  196  A    between atoms: _465  and  _466
REMARK  197  A    between atoms: _471  and  _472
REMARK  198  A    between atoms: _474  and  _476
REMARK  199  A    between atoms: _476  and  _477
REMARK  200  A    between atoms: _476  and  _479
REMARK  201  A    between atoms: _479  and  _480
REMARK  202  A    between atoms: _483  and  _485
REMARK  203  A    between atoms: _485  and  _486
REMARK  204  A    between atoms: _485  and  _488
REMARK  205  A    between atoms: _488  and  _489
REMARK  206  A    between atoms: _491  and  _493
REMARK  207  A    between atoms: _493  and  _494
REMARK  208  A    between atoms: _493  and  _496
REMARK  209  A    between atoms: _496  and  _497
REMARK  210  A    between atoms: _500  and  _502
REMARK  211  A    between atoms: _502  and  _503
REMARK  212  A    between atoms: _502  and  _505
REMARK  213  A    between atoms: _505  and  _506
REMARK  214  A    between atoms: _506  and  _507
REMARK  215  A    between atoms: _509  and  _511
REMARK  216  A    between atoms: _511  and  _512
REMARK  217  A    between atoms: _511  and  _514
REMARK  218  A    between atoms: _514  and  _515
REMARK  219  A    between atoms: _520  and  _521
REMARK  220  A    between atoms: _523  and  _525
REMARK  221  A    between atoms: _525  and  _526
REMARK  222  A    between atoms: _525  and  _528
REMARK  223  A    between atoms: _528  and  _529
REMARK  224  A    between atoms: _529  and  _530
REMARK  225  A    between atoms: _530  and  _531
REMARK  226  A    between atoms: _540  and  _542
REMARK  227  A    between atoms: _542  and  _543
REMARK  228  A    between atoms: _542  and  _545
REMARK  229  A    between atoms: _545  and  _546
REMARK  230  A    between atoms: _548  and  _550
REMARK  231  A    between atoms: _550  and  _551
REMARK  232  A    between atoms: _550  and  _553
REMARK  233  A    between atoms: _553  and  _554
REMARK  234  A    between atoms: _559  and  _560
REMARK  235  A    between atoms: _562  and  _564
REMARK  236  A    between atoms: _564  and  _565
REMARK  237  A    between atoms: _568  and  _570
REMARK  238  A    between atoms: _570  and  _571
REMARK  239  A    between atoms: _574  and  _576
REMARK  240  A    between atoms: _576  and  _577
REMARK  241  A    between atoms: _576  and  _579
REMARK  242  A    between atoms: _579  and  _580
REMARK  243  A    between atoms: _580  and  _581
REMARK  244  A    between atoms: _581  and  _582
REMARK  245  A    between atoms: _591  and  _593
REMARK  246  A    between atoms: _593  and  _594
REMARK  247  A    between atoms: _593  and  _596
REMARK  248  A    between atoms: _599  and  _601
REMARK  249  A    between atoms: _601  and  _602
REMARK  250  A    between atoms: _604  and  _606
REMARK  251  A    between atoms: _606  and  _607
REMARK  252  A    between atoms: _606  and  _609
REMARK  253  A    between atoms: _609  and  _610
REMARK  254  A    between atoms: _613  and  _615
REMARK  255  A    between atoms: _615  and  _616
REMARK  256  A    between atoms: _619  and  _621
REMARK  257  A    between atoms: _621  and  _622
REMARK  258  A    between atoms: _621  and  _624
REMARK  259  A    between atoms: _624  and  _625
REMARK  260  A    between atoms: _628  and  _630
REMARK  261  A    between atoms: _630  and  _631
REMARK  262  A    between atoms: _630  and  _633
REMARK  263  A    between atoms: _633  and  _634
REMARK  264  A    between atoms: _639  and  _640
REMARK  265  A    between atoms: _642  and  _644
REMARK  266  A    between atoms: _644  and  _645
REMARK  267  A    between atoms: _644  and  _647
REMARK  268  A    between atoms: _647  and  _648
REMARK  269  A    between atoms: _648  and  _649
REMARK  270  A    between atoms: _651  and  _653
REMARK  271  A    between atoms: _653  and  _654
REMARK  272  A    between atoms: _653  and  _656
REMARK  273  A    between atoms: _656  and  _657
REMARK  274  A    between atoms: _657  and  _658
REMARK  275  A    between atoms: _661  and  _663
REMARK  276  A    between atoms: _663  and  _664
REMARK  277  A    between atoms: _663  and  _666
REMARK  278  A    between atoms: _666  and  _667
REMARK  279  A    between atoms: _673  and  _675
REMARK  280  A    between atoms: _675  and  _676
REMARK  281  A    between atoms: _675  and  _678
REMARK  282  A    between atoms: _678  and  _679
REMARK  283  A    between atoms: _684  and  _686
REMARK  284  A    between atoms: _686  and  _687
REMARK  285  A    between atoms: _686  and  _689
REMARK  286  A    between atoms: _689  and  _690
REMARK  287  A    between atoms: _700  and  _702
REMARK  288  A    between atoms: _702  and  _703
REMARK  289  A    between atoms: _702  and  _705
REMARK  290  A    between atoms: _708  and  _710
REMARK  291  A    between atoms: _710  and  _711
REMARK  292  A    between atoms: _710  and  _713
REMARK  293  A    between atoms: _713  and  _714
REMARK  294  A    between atoms: _717  and  _719
REMARK  295  A    between atoms: _719  and  _720
REMARK  296  A    between atoms: _719  and  _722
REMARK  297  A    between atoms: _722  and  _723
REMARK  298  A    between atoms: _723  and  _724
REMARK  299  A    between atoms: _726  and  _728
REMARK  300  A    between atoms: _728  and  _729
REMARK  301  A    between atoms: _728  and  _731
REMARK  302  A    between atoms: _731  and  _732
REMARK  303  A    between atoms: _735  and  _737
REMARK  304  A    between atoms: _737  and  _738
REMARK  305  A    between atoms: _737  and  _740
REMARK  306  A    between atoms: _740  and  _741
REMARK  307  A    between atoms: _744  and  _746
REMARK  308  A    between atoms: _746  and  _747
REMARK  309  A    between atoms: _746  and  _749
REMARK  310  A    between atoms: _749  and  _750
REMARK  311  A    between atoms: _753  and  _755
REMARK  312  A    between atoms: _755  and  _756
REMARK  313  A    between atoms: _755  and  _758
REMARK  314  A    between atoms: _758  and  _759
REMARK  315  A    between atoms: _762  and  _764
REMARK  316  A    between atoms: _764  and  _765
REMARK  317  A    between atoms: _767  and  _769
REMARK  318  A    between atoms: _769  and  _770
REMARK  319  A    between atoms: _769  and  _772
REMARK  320  A    between atoms: _772  and  _773
REMARK  321  A    between atoms: _775  and  _777
REMARK  322  A    between atoms: _777  and  _778
REMARK  323  A    between atoms: _777  and  _780
REMARK  324  A    between atoms: _780  and  _781
REMARK  325  A    between atoms: _791  and  _793
REMARK  326  A    between atoms: _793  and  _794
REMARK  327  A    between atoms: _793  and  _796
REMARK  328  A    between atoms: _796  and  _797
REMARK  329  A    between atoms: _799  and  _801
REMARK  330  A    between atoms: _801  and  _802
REMARK  331  A    between atoms: _801  and  _804
REMARK  332  A    between atoms: _804  and  _805
REMARK  333  A    between atoms: _808  and  _810
REMARK  334  A    between atoms: _810  and  _811
REMARK  335  A    between atoms: _814  and  _816
REMARK  336  A    between atoms: _816  and  _817
REMARK  337  A    between atoms: _816  and  _819
REMARK  338  A    between atoms: _819  and  _820
REMARK  339  A    between atoms: _822  and  _824
REMARK  340  A    between atoms: _824  and  _825
REMARK  341  A    between atoms: _824  and  _827
REMARK  342  A    between atoms: _827  and  _828
REMARK  343  A    between atoms: _828  and  _829
REMARK  344  A    between atoms: _832  and  _834
REMARK  345  A    between atoms: _834  and  _835
REMARK  346  A    between atoms: _834  and  _837
REMARK  347  A    between atoms: _837  and  _838
REMARK  348  A    between atoms: _840  and  _842
REMARK  349  A    between atoms: _842  and  _843
REMARK  350  A    between atoms: _842  and  _845
REMARK  351  A    between atoms: _845  and  _846
REMARK  352  A    between atoms: _846  and  _847
REMARK  353  A    between atoms: _852  and  _854
REMARK  354  A    between atoms: _854  and  _855
REMARK  355  A    between atoms: _854  and  _857
REMARK  356  A    between atoms: _857  and  _858
REMARK  357  A    between atoms: _858  and  _859
REMARK  358  A    between atoms: _864  and  _866
REMARK  359  A    between atoms: _866  and  _867
REMARK  360  A    between atoms: _866  and  _869
REMARK  361  A    between atoms: _869  and  _870
REMARK  362  A    between atoms: _873  and  _875
REMARK  363  A    between atoms: _875  and  _876
REMARK  364  A    between atoms: _875  and  _878
REMARK  365  A    between atoms: _878  and  _879
REMARK  366  A    between atoms: _882  and  _884
REMARK  367  A    between atoms: _884  and  _885
REMARK  368  A    between atoms: _884  and  _887
REMARK  369  A    between atoms: _887  and  _888
REMARK  370  A    between atoms: _895  and  _896
REMARK  371  A    between atoms: _901  and  _903
REMARK  372  A    between atoms: _903  and  _904
REMARK  373  A    between atoms: _903  and  _906
REMARK  374  A    between atoms: _906  and  _907
REMARK  375  A    between atoms: _912  and  _913
REMARK  376  A    between atoms: _915  and  _917
REMARK  377  A    between atoms: _917  and  _918
REMARK  378  A    between atoms: _917  and  _920
REMARK  379  A    between atoms: _920  and  _921
REMARK  380  A    between atoms: _926  and  _928
REMARK  381  A    between atoms: _928  and  _929
REMARK  382  A    between atoms: _928  and  _931
REMARK  383  A    between atoms: _931  and  _932
REMARK  384  A    between atoms: _938  and  _940
REMARK  385  A    between atoms: _940  and  _941
REMARK  386  A    between atoms: _940  and  _943
REMARK  387  A    between atoms: _943  and  _944
REMARK  388  A    between atoms: _947  and  _949
REMARK  389  A    between atoms: _949  and  _950
REMARK  390  A    between atoms: _949  and  _952
REMARK  391  A    between atoms: _952  and  _953
REMARK  392  A    between atoms: _958  and  _960
REMARK  393  A    between atoms: _960  and  _961
REMARK  394  A    between atoms: _960  and  _963
REMARK  395  A    between atoms: _963  and  _964
REMARK  396  A    between atoms: _970  and  _972
REMARK  397  A    between atoms: _972  and  _973
REMARK  398  A    between atoms: _972  and  _975
REMARK  399  A    between atoms: _975  and  _976
REMARK  400  A    between atoms: _976  and  _977
REMARK  401  A    between atoms: _979  and  _981
REMARK  402  A    between atoms: _981  and  _982
REMARK  403  A    between atoms: _981  and  _984
REMARK  404  A    between atoms: _984  and  _985
REMARK  405  A    between atoms: _988  and  _990
REMARK  406  A    between atoms: _990  and  _991
REMARK  407  A    between atoms: _990  and  _993
REMARK  408  A    between atoms: _993  and  _994
REMARK  409  A    between atoms: _999  and  _1001
REMARK  410  A    between atoms: _1001  and  _1002
REMARK  411  A    between atoms: _1001  and  _1004
REMARK  412  A    between atoms: _1004  and  _1005
REMARK  413  A    between atoms: _1010  and  _1011
REMARK                            x       y       z     vdW  Elec       q    Type
REMARK                         _______ _______ _______ _____ _____    ______ ____
ROOT
ATOM      1  O   HOH     1     -19.271  -7.601  16.895  0.00  0.00    +0.000 OA
ENDROOT
TORSDOF 0
REMARK  Name = ../refined-set-2016/3drg/3drg_pocket.pdb
REMARK  413 active torsions:
REMARK  status: ('A' for Active; 'I' for Inactive)
REMARK    1  A    between atoms: _1  and  _3
REMARK    2  A    between atoms: _3  and  _4
REMARK    3  A    between atoms: _3  and  _6
REMARK    4  A    between atoms: _6  and  _7
REMARK    5  A    between atoms: _12  and  _13
REMARK    6  A    between atoms: _15  and  _17
REMARK    7  A    between atoms: _17  and  _18
REMARK    8  A    between atoms: _17  and  _20
REMARK    9  A    between atoms: _20  and  _21
REMARK   10  A    between atoms: _21  and  _22
REMARK   11  A    between atoms: _27  and  _29
REMARK   12  A    between atoms: _29  and  _30
REMARK   13  A    between atoms: _29  and  _32
REMARK   14  A    between atoms: _32  and  _33
REMARK   15  A    between atoms: _35  and  _37
REMARK   16  A    between atoms: _37  and  _38
REMARK   17  A    between atoms: _37  and  _40
REMARK   18  A    between atoms: _40  and  _41
REMARK   19  A    between atoms: _44  and  _46
REMARK   20  A    between atoms: _46  and  _47
REMARK   21  A    between atoms: _46  and  _49
REMARK   22  A    between atoms: _49  and  _50
REMARK   23  A    between atoms: _52  and  _54
REMARK   24  A    between atoms: _54  and  _55
REMARK   25  A    between atoms: _54  and  _57
REMARK   26  A    between atoms: _57  and  _58
REMARK   27  A    between atoms: _61  and  _63
REMARK   28  A    between atoms: _63  and  _64
REMARK   29  A    between atoms: _63  and  _66
REMARK   30  A    between atoms: _66  and  _67
REMARK   31  A    between atoms: _69  and  _71
REMARK   32  A    between atoms: _71  and  _72
REMARK   33  A    between atoms: _74  and  _76
REMARK   34  A    between atoms: _76  and  _77
REMARK   35  A    between atoms: _76  and  _79
REMARK   36  A    between atoms: _79  and  _80
REMARK   37  A    between atoms: _82  and  _84
REMARK   38  A    between atoms: _84  and  _85
REMARK   39  A    between atoms: _84  and  _87
REMARK   40  A    between atoms: _87  and  _88
REMARK   41  A    between atoms: _93  and  _95
REMARK   42  A    between atoms: _95  and  _96
REMARK   43  A    between atoms: _95  and  _98
REMARK   44  A    between atoms: _98  and  _99
REMARK   45  A    between atoms: _102  and  _104
REMARK   46  A    between atoms: _104  and  _105
REMARK   47  A    between atoms: _108  and  _110
REMARK   48  A    between atoms: _110  and  _111
REMARK   49  A    between atoms: _110  and  _113
REMARK   50  A    between atoms: _113  and  _114
REMARK   51  A    between atoms: _117  and  _119
REMARK   52  A    between atoms: _119  and  _120
REMARK   53  A    between atoms: _119  and  _122
REMARK   54  A    between atoms: _122  and  _123
REMARK   55  A    between atoms: _129  and  _131
REMARK   56  A    between atoms: _131  and  _132
REMARK   57  A    between atoms: _135  and  _137
REMARK   58  A    between atoms: _137  and  _138
REMARK   59  A    between atoms: _137  and  _140
REMARK   60  A    between atoms: _140  and  _141
REMARK   61  A    between atoms: _144  and  _146
REMARK   62  A    between atoms: _146  and  _147
REMARK   63  A    between atoms: _146  and  _149
REMARK   64  A    between atoms: _149  and  _150
REMARK   65  A    between atoms: _152  and  _154
REMARK   66  A    between atoms: _154  and  _155
REMARK   67  A    between atoms: _157  and  _159
REMARK   68  A    between atoms: _159  and  _160
REMARK   69  A    between atoms: _162  and  _164
REMARK   70  A    between atoms: _164  and  _165
REMARK   71  A    between atoms: _164  and  _167
REMARK   72  A    between atoms: _167  and  _168
REMARK   73  A    between atoms: _168  and  _169
REMARK   74  A    between atoms: _174  and  _176
REMARK   75  A    between atoms: _176  and  _177
REMARK   76  A    between atoms: _176  and  _179
REMARK   77  A    between atoms: _179  and  _180
REMARK   78  A    between atoms: _183  and  _185
REMARK   79  A    between atoms: _185  and  _186
REMARK   80  A    between atoms: _188  and  _190
REMARK   81  A    between atoms: _190  and  _191
REMARK   82  A    between atoms: _190  and  _193
REMARK   83  A    between atoms: _193  and  _194
REMARK   84  A    between atoms: _197  and  _199
REMARK   85  A    between atoms: _199  and  _200
REMARK   86  A    between atoms: _199  and  _202
REMARK   87  A    between atoms: _202  and  _203
REMARK   88  A    between atoms: _209  and  _211
REMARK   89  A    between atoms: _211  and  _212
REMARK   90  A    between atoms: _211  and  _214
REMARK   91  A    between atoms: _214  and  _215
REMARK   92  A    between atoms: _218  and  _220
REMARK   93  A    between atoms: _220  and  _221
REMARK   94  A    between atoms: _220  and  _223
REMARK   95  A    between atoms: _223  and  _224
REMARK   96  A    between atoms: _230  and  _232
REMARK   97  A    between atoms: _232  and  _233
REMARK   98  A    between atoms: _232  and  _235
REMARK   99  A    between atoms: _235  and  _236
REMARK  100  A    between atoms: _242  and  _244
REMARK  101  A    between atoms: _244  and  _245
REMARK  102  A    between atoms: _244  and  _247
REMARK  103  A    between atoms: _247  and  _248
REMARK  104  A    between atoms: _251  and  _253
REMARK  105  A    between atoms: _253  and  _254
REMARK  106  A    between atoms: _253  and  _256
REMARK  107  A    between atoms: _256  and  _257
REMARK  108  A    between atoms: _260  and  _262
REMARK  109  A    between atoms: _262  and  _263
REMARK  110  A    between atoms: _262  and  _265
REMARK  111  A    between atoms: _265  and  _266
REMARK  112  A    between atoms: _266  and  _267
REMARK  113  A    between atoms: _267  and  _268
REMARK  114  A    between atoms: _277  and  _279
REMARK  115  A    between atoms: _279  and  _280
REMARK  116  A    between atoms: _279  and  _282
REMARK  117  A    between atoms: _282  and  _283
REMARK  118  A    between atoms: _286  and  _288
REMARK  119  A    between atoms: _288  and  _289
REMARK  120  A    between atoms: _288  and  _291
REMARK  121  A    between atoms: _291  and  _292
REMARK  122  A    between atoms: _292  and  _293
REMARK  123  A    between atoms: _298  and  _300
REMARK  124  A    between atoms: _300  and  _301
REMARK  125  A    between atoms: _300  and  _303
REMARK  126  A    between atoms: _303  and  _304
REMARK  127  A    between atoms: _306  and  _308
REMARK  128  A    between atoms: _308  and  _309
REMARK  129  A    between atoms: _311  and  _313
REMARK  130  A    between atoms: _313  and  _314
REMARK  131  A    between atoms: _313  and  _316
REMARK  132  A    between atoms: _316  and  _317
REMARK  133  A    between atoms: _322  and  _324
REMARK  134  A    between atoms: _324  and  _325
REMARK  135  A    between atoms: _327  and  _329
REMARK  136  A    between atoms: _329  and  _330
REMARK  137  A    between atoms: _329  and  _332
REMARK  138  A    between atoms: _332  and  _333
REMARK  139  A    between atoms: _339  and  _341
REMARK  140  A    between atoms: _341  and  _342
REMARK  141  A    between atoms: _341  and  _344
REMARK  142  A    between atoms: _344  and  _345
REMARK  143  A    between atoms: _348  and  _350
REMARK  144  A    between atoms: _350  and  _351
REMARK  145  A    between atoms: _350  and  _353
REMARK  146  A    between atoms: _353  and  _354
REMARK  147  A    between atoms: _354  and  _355
REMARK  148  A    between atoms: _358  and  _360
REMARK  149  A    between atoms: _360  and  _361
REMARK  150  A    between atoms: _360  and  _363
REMARK  151  A    between atoms: _363  and  _364
REMARK  152  A    between atoms: _367  and  _369
REMARK  153  A    between atoms: _369  and  _370
REMARK  154  A    between atoms: _369  and  _372
REMARK  155  A    between atoms: _375  and  _377
REMARK  156  A    between atoms: _377  and  _378
REMARK  157  A    between atoms: _377  and  _380
REMARK  158  A    between atoms: _380  and  _381
REMARK  159  A    between atoms: _384  and  _386
REMARK  160  A    between atoms: _386  and  _387
REMARK  161  A    between atoms: _386  and  _389
REMARK  162  A    between atoms: _389  and  _390
REMARK  163  A    between atoms: _395  and  _397
REMARK  164  A    between atoms: _397  and  _398
REMARK  165  A    between atoms: _400  and  _402
REMARK  166  A    between atoms: _402  and  _403
REMARK  167  A    between atoms: _402  and  _405
REMARK  168  A    between atoms: _405  and  _406
REMARK  169  A    between atoms: _406  and  _407
REMARK  170  A    between atoms: _409  and  _411
REMARK  171  A    between atoms: _411  and  _412
REMARK  172  A    between atoms: _411  and  _414
REMARK  173  A    between atoms: _417  and  _419
REMARK  174  A    between atoms: _419  and  _420
REMARK  175  A    between atoms: _419  and  _422
REMARK  176  A    between atoms: _422  and  _423
REMARK  177  A    between atoms: _425  and  _427
REMARK  178  A    between atoms: _427  and  _428
REMARK  179  A    between atoms: _427  and  _430
REMARK  180  A    between atoms: _430  and  _431
REMARK  181  A    between atoms: _433  and  _435
REMARK  182  A    between atoms: _435  and  _436
REMARK  183  A    between atoms: _435  and  _438
REMARK  184  A    between atoms: _438  and  _439
REMARK  185  A    between atoms: _439  and  _440
REMARK  186  A    between atoms: _445  and  _447
REMARK  187  A    between atoms: _447  and  _448
REMARK  188  A    between atoms: _451  and  _453
REMARK  189  A    between atoms: _453  and  _454
REMARK  190  A    between atoms: _453  and  _456
REMARK  191  A    between atoms: _456  and  _457
REMARK  192  A    between atoms: _457  and  _458
REMARK  193  A    between atoms: _460  and  _462
REMARK  194  A    between atoms: _462  and  _463
REMARK  195  A    between atoms: _462  and  _465
REMARK  196  A    between atoms: _465  and  _466
REMARK  197  A    between atoms: _471  and  _472
REMARK  198  A    between atoms: _474  and  _476
REMARK  199  A    between atoms: _476  and  _477
REMARK  200  A    between atoms: _476  and  _479
REMARK  201  A    between atoms: _479  and  _480
REMARK  202  A    between atoms: _483  and  _485
REMARK  203  A    between atoms: _485  and  _486
REMARK  204  A    between atoms: _485  and  _488
REMARK  205  A    between atoms: _488  and  _489
REMARK  206  A    between atoms: _491  and  _493
REMARK  207  A    between atoms: _493  and  _494
REMARK  208  A    between atoms: _493  and  _496
REMARK  209  A    between atoms: _496  and  _497
REMARK  210  A    between atoms: _500  and  _502
REMARK  211  A    between atoms: _502  and  _503
REMARK  212  A    between atoms: _502  and  _505
REMARK  213  A    between atoms: _505  and  _506
REMARK  214  A    between atoms: _506  and  _507
REMARK  215  A    between atoms: _509  and  _511
REMARK  216  A    between atoms: _511  and  _512
REMARK  217  A    between atoms: _511  and  _514
REMARK  218  A    between atoms: _514  and  _515
REMARK  219  A    between atoms: _520  and  _521
REMARK  220  A    between atoms: _523  and  _525
REMARK  221  A    between atoms: _525  and  _526
REMARK  222  A    between atoms: _525  and  _528
REMARK  223  A    between atoms: _528  and  _529
REMARK  224  A    between atoms: _529  and  _530
REMARK  225  A    between atoms: _530  and  _531
REMARK  226  A    between atoms: _540  and  _542
REMARK  227  A    between atoms: _542  and  _543
REMARK  228  A    between atoms: _542  and  _545
REMARK  229  A    between atoms: _545  and  _546
REMARK  230  A    between atoms: _548  and  _550
REMARK  231  A    between atoms: _550  and  _551
REMARK  232  A    between atoms: _550  and  _553
REMARK  233  A    between atoms: _553  and  _554
REMARK  234  A    between atoms: _559  and  _560
REMARK  235  A    between atoms: _562  and  _564
REMARK  236  A    between atoms: _564  and  _565
REMARK  237  A    between atoms: _568  and  _570
REMARK  238  A    between atoms: _570  and  _571
REMARK  239  A    between atoms: _574  and  _576
REMARK  240  A    between atoms: _576  and  _577
REMARK  241  A    between atoms: _576  and  _579
REMARK  242  A    between atoms: _579  and  _580
REMARK  243  A    between atoms: _580  and  _581
REMARK  244  A    between atoms: _581  and  _582
REMARK  245  A    between atoms: _591  and  _593
REMARK  246  A    between atoms: _593  and  _594
REMARK  247  A    between atoms: _593  and  _596
REMARK  248  A    between atoms: _599  and  _601
REMARK  249  A    between atoms: _601  and  _602
REMARK  250  A    between atoms: _604  and  _606
REMARK  251  A    between atoms: _606  and  _607
REMARK  252  A    between atoms: _606  and  _609
REMARK  253  A    between atoms: _609  and  _610
REMARK  254  A    between atoms: _613  and  _615
REMARK  255  A    between atoms: _615  and  _616
REMARK  256  A    between atoms: _619  and  _621
REMARK  257  A    between atoms: _621  and  _622
REMARK  258  A    between atoms: _621  and  _624
REMARK  259  A    between atoms: _624  and  _625
REMARK  260  A    between atoms: _628  and  _630
REMARK  261  A    between atoms: _630  and  _631
REMARK  262  A    between atoms: _630  and  _633
REMARK  263  A    between atoms: _633  and  _634
REMARK  264  A    between atoms: _639  and  _640
REMARK  265  A    between atoms: _642  and  _644
REMARK  266  A    between atoms: _644  and  _645
REMARK  267  A    between atoms: _644  and  _647
REMARK  268  A    between atoms: _647  and  _648
REMARK  269  A    between atoms: _648  and  _649
REMARK  270  A    between atoms: _651  and  _653
REMARK  271  A    between atoms: _653  and  _654
REMARK  272  A    between atoms: _653  and  _656
REMARK  273  A    between atoms: _656  and  _657
REMARK  274  A    between atoms: _657  and  _658
REMARK  275  A    between atoms: _661  and  _663
REMARK  276  A    between atoms: _663  and  _664
REMARK  277  A    between atoms: _663  and  _666
REMARK  278  A    between atoms: _666  and  _667
REMARK  279  A    between atoms: _673  and  _675
REMARK  280  A    between atoms: _675  and  _676
REMARK  281  A    between atoms: _675  and  _678
REMARK  282  A    between atoms: _678  and  _679
REMARK  283  A    between atoms: _684  and  _686
REMARK  284  A    between atoms: _686  and  _687
REMARK  285  A    between atoms: _686  and  _689
REMARK  286  A    between atoms: _689  and  _690
REMARK  287  A    between atoms: _700  and  _702
REMARK  288  A    between atoms: _702  and  _703
REMARK  289  A    between atoms: _702  and  _705
REMARK  290  A    between atoms: _708  and  _710
REMARK  291  A    between atoms: _710  and  _711
REMARK  292  A    between atoms: _710  and  _713
REMARK  293  A    between atoms: _713  and  _714
REMARK  294  A    between atoms: _717  and  _719
REMARK  295  A    between atoms: _719  and  _720
REMARK  296  A    between atoms: _719  and  _722
REMARK  297  A    between atoms: _722  and  _723
REMARK  298  A    between atoms: _723  and  _724
REMARK  299  A    between atoms: _726  and  _728
REMARK  300  A    between atoms: _728  and  _729
REMARK  301  A    between atoms: _728  and  _731
REMARK  302  A    between atoms: _731  and  _732
REMARK  303  A    between atoms: _735  and  _737
REMARK  304  A    between atoms: _737  and  _738
REMARK  305  A    between atoms: _737  and  _740
REMARK  306  A    between atoms: _740  and  _741
REMARK  307  A    between atoms: _744  and  _746
REMARK  308  A    between atoms: _746  and  _747
REMARK  309  A    between atoms: _746  and  _749
REMARK  310  A    between atoms: _749  and  _750
REMARK  311  A    between atoms: _753  and  _755
REMARK  312  A    between atoms: _755  and  _756
REMARK  313  A    between atoms: _755  and  _758
REMARK  314  A    between atoms: _758  and  _759
REMARK  315  A    between atoms: _762  and  _764
REMARK  316  A    between atoms: _764  and  _765
REMARK  317  A    between atoms: _767  and  _769
REMARK  318  A    between atoms: _769  and  _770
REMARK  319  A    between atoms: _769  and  _772
REMARK  320  A    between atoms: _772  and  _773
REMARK  321  A    between atoms: _775  and  _777
REMARK  322  A    between atoms: _777  and  _778
REMARK  323  A    between atoms: _777  and  _780
REMARK  324  A    between atoms: _780  and  _781
REMARK  325  A    between atoms: _791  and  _793
REMARK  326  A    between atoms: _793  and  _794
REMARK  327  A    between atoms: _793  and  _796
REMARK  328  A    between atoms: _796  and  _797
REMARK  329  A    between atoms: _799  and  _801
REMARK  330  A    between atoms: _801  and  _802
REMARK  331  A    between atoms: _801  and  _804
REMARK  332  A    between atoms: _804  and  _805
REMARK  333  A    between atoms: _808  and  _810
REMARK  334  A    between atoms: _810  and  _811
REMARK  335  A    between atoms: _814  and  _816
REMARK  336  A    between atoms: _816  and  _817
REMARK  337  A    between atoms: _816  and  _819
REMARK  338  A    between atoms: _819  and  _820
REMARK  339  A    between atoms: _822  and  _824
REMARK  340  A    between atoms: _824  and  _825
REMARK  341  A    between atoms: _824  and  _827
REMARK  342  A    between atoms: _827  and  _828
REMARK  343  A    between atoms: _828  and  _829
REMARK  344  A    between atoms: _832  and  _834
REMARK  345  A    between atoms: _834  and  _835
REMARK  346  A    between atoms: _834  and  _837
REMARK  347  A    between atoms: _837  and  _838
REMARK  348  A    between atoms: _840  and  _842
REMARK  349  A    between atoms: _842  and  _843
REMARK  350  A    between atoms: _842  and  _845
REMARK  351  A    between atoms: _845  and  _846
REMARK  352  A    between atoms: _846  and  _847
REMARK  353  A    between atoms: _852  and  _854
REMARK  354  A    between atoms: _854  and  _855
REMARK  355  A    between atoms: _854  and  _857
REMARK  356  A    between atoms: _857  and  _858
REMARK  357  A    between atoms: _858  and  _859
REMARK  358  A    between atoms: _864  and  _866
REMARK  359  A    between atoms: _866  and  _867
REMARK  360  A    between atoms: _866  and  _869
REMARK  361  A    between atoms: _869  and  _870
REMARK  362  A    between atoms: _873  and  _875
REMARK  363  A    between atoms: _875  and  _876
REMARK  364  A    between atoms: _875  and  _878
REMARK  365  A    between atoms: _878  and  _879
REMARK  366  A    between atoms: _882  and  _884
REMARK  367  A    between atoms: _884  and  _885
REMARK  368  A    between atoms: _884  and  _887
REMARK  369  A    between atoms: _887  and  _888
REMARK  370  A    between atoms: _895  and  _896
REMARK  371  A    between atoms: _901  and  _903
REMARK  372  A    between atoms: _903  and  _904
REMARK  373  A    between atoms: _903  and  _906
REMARK  374  A    between atoms: _906  and  _907
REMARK  375  A    between atoms: _912  and  _913
REMARK  376  A    between atoms: _915  and  _917
REMARK  377  A    between atoms: _917  and  _918
REMARK  378  A    between atoms: _917  and  _920
REMARK  379  A    between atoms: _920  and  _921
REMARK  380  A    between atoms: _926  and  _928
REMARK  381  A    between atoms: _928  and  _929
REMARK  382  A    between atoms: _928  and  _931
REMARK  383  A    between atoms: _931  and  _932
REMARK  384  A    between atoms: _938  and  _940
REMARK  385  A    between atoms: _940  and  _941
REMARK  386  A    between atoms: _940  and  _943
REMARK  387  A    between atoms: _943  and  _944
REMARK  388  A    between atoms: _947  and  _949
REMARK  389  A    between atoms: _949  and  _950
REMARK  390  A    between atoms: _949  and  _952
REMARK  391  A    between atoms: _952  and  _953
REMARK  392  A    between atoms: _958  and  _960
REMARK  393  A    between atoms: _960  and  _961
REMARK  394  A    between atoms: _960  and  _963
REMARK  395  A    between atoms: _963  and  _964
REMARK  396  A    between atoms: _970  and  _972
REMARK  397  A    between atoms: _972  and  _973
REMARK  398  A    between atoms: _972  and  _975
REMARK  399  A    between atoms: _975  and  _976
REMARK  400  A    between atoms: _976  and  _977
REMARK  401  A    between atoms: _979  and  _981
REMARK  402  A    between atoms: _981  and  _982
REMARK  403  A    between atoms: _981  and  _984
REMARK  404  A    between atoms: _984  and  _985
REMARK  405  A    between atoms: _988  and  _990
REMARK  406  A    between atoms: _990  and  _991
REMARK  407  A    between atoms: _990  and  _993
REMARK  408  A    between atoms: _993  and  _994
REMARK  409  A    between atoms: _999  and  _1001
REMARK  410  A    between atoms: _1001  and  _1002
REMARK  411  A    between atoms: _1001  and  _1004
REMARK  412  A    between atoms: _1004  and  _1005
REMARK  413  A    between atoms: _1010  and  _1011
REMARK                            x       y       z     vdW  Elec       q    Type
REMARK                         _______ _______ _______ _____ _____    ______ ____
ROOT
ATOM      1  O   HOH     1     -15.822   2.270  27.318  0.00  0.00    +0.000 OA
ENDROOT
TORSDOF 0
REMARK  Name = ../refined-set-2016/3drg/3drg_pocket.pdb
REMARK  413 active torsions:
REMARK  status: ('A' for Active; 'I' for Inactive)
REMARK    1  A    between atoms: _1  and  _3
REMARK    2  A    between atoms: _3  and  _4
REMARK    3  A    between atoms: _3  and  _6
REMARK    4  A    between atoms: _6  and  _7
REMARK    5  A    between atoms: _12  and  _13
REMARK    6  A    between atoms: _15  and  _17
REMARK    7  A    between atoms: _17  and  _18
REMARK    8  A    between atoms: _17  and  _20
REMARK    9  A    between atoms: _20  and  _21
REMARK   10  A    between atoms: _21  and  _22
REMARK   11  A    between atoms: _27  and  _29
REMARK   12  A    between atoms: _29  and  _30
REMARK   13  A    between atoms: _29  and  _32
REMARK   14  A    between atoms: _32  and  _33
REMARK   15  A    between atoms: _35  and  _37
REMARK   16  A    between atoms: _37  and  _38
REMARK   17  A    between atoms: _37  and  _40
REMARK   18  A    between atoms: _40  and  _41
REMARK   19  A    between atoms: _44  and  _46
REMARK   20  A    between atoms: _46  and  _47
REMARK   21  A    between atoms: _46  and  _49
REMARK   22  A    between atoms: _49  and  _50
REMARK   23  A    between atoms: _52  and  _54
REMARK   24  A    between atoms: _54  and  _55
REMARK   25  A    between atoms: _54  and  _57
REMARK   26  A    between atoms: _57  and  _58
REMARK   27  A    between atoms: _61  and  _63
REMARK   28  A    between atoms: _63  and  _64
REMARK   29  A    between atoms: _63  and  _66
REMARK   30  A    between atoms: _66  and  _67
REMARK   31  A    between atoms: _69  and  _71
REMARK   32  A    between atoms: _71  and  _72
REMARK   33  A    between atoms: _74  and  _76
REMARK   34  A    between atoms: _76  and  _77
REMARK   35  A    between atoms: _76  and  _79
REMARK   36  A    between atoms: _79  and  _80
REMARK   37  A    between atoms: _82  and  _84
REMARK   38  A    between atoms: _84  and  _85
REMARK   39  A    between atoms: _84  and  _87
REMARK   40  A    between atoms: _87  and  _88
REMARK   41  A    between atoms: _93  and  _95
REMARK   42  A    between atoms: _95  and  _96
REMARK   43  A    between atoms: _95  and  _98
REMARK   44  A    between atoms: _98  and  _99
REMARK   45  A    between atoms: _102  and  _104
REMARK   46  A    between atoms: _104  and  _105
REMARK   47  A    between atoms: _108  and  _110
REMARK   48  A    between atoms: _110  and  _111
REMARK   49  A    between atoms: _110  and  _113
REMARK   50  A    between atoms: _113  and  _114
REMARK   51  A    between atoms: _117  and  _119
REMARK   52  A    between atoms: _119  and  _120
REMARK   53  A    between atoms: _119  and  _122
REMARK   54  A    between atoms: _122  and  _123
REMARK   55  A    between atoms: _129  and  _131
REMARK   56  A    between atoms: _131  and  _132
REMARK   57  A    between atoms: _135  and  _137
REMARK   58  A    between atoms: _137  and  _138
REMARK   59  A    between atoms: _137  and  _140
REMARK   60  A    between atoms: _140  and  _141
REMARK   61  A    between atoms: _144  and  _146
REMARK   62  A    between atoms: _146  and  _147
REMARK   63  A    between atoms: _146  and  _149
REMARK   64  A    between atoms: _149  and  _150
REMARK   65  A    between atoms: _152  and  _154
REMARK   66  A    between atoms: _154  and  _155
REMARK   67  A    between atoms: _157  and  _159
REMARK   68  A    between atoms: _159  and  _160
REMARK   69  A    between atoms: _162  and  _164
REMARK   70  A    between atoms: _164  and  _165
REMARK   71  A    between atoms: _164  and  _167
REMARK   72  A    between atoms: _167  and  _168
REMARK   73  A    between atoms: _168  and  _169
REMARK   74  A    between atoms: _174  and  _176
REMARK   75  A    between atoms: _176  and  _177
REMARK   76  A    between atoms: _176  and  _179
REMARK   77  A    between atoms: _179  and  _180
REMARK   78  A    between atoms: _183  and  _185
REMARK   79  A    between atoms: _185  and  _186
REMARK   80  A    between atoms: _188  and  _190
REMARK   81  A    between atoms: _190  and  _191
REMARK   82  A    between atoms: _190  and  _193
REMARK   83  A    between atoms: _193  and  _194
REMARK   84  A    between atoms: _197  and  _199
REMARK   85  A    between atoms: _199  and  _200
REMARK   86  A    between atoms: _199  and  _202
REMARK   87  A    between atoms: _202  and  _203
REMARK   88  A    between atoms: _209  and  _211
REMARK   89  A    between atoms: _211  and  _212
REMARK   90  A    between atoms: _211  and  _214
REMARK   91  A    between atoms: _214  and  _215
REMARK   92  A    between atoms: _218  and  _220
REMARK   93  A    between atoms: _220  and  _221
REMARK   94  A    between atoms: _220  and  _223
REMARK   95  A    between atoms: _223  and  _224
REMARK   96  A    between atoms: _230  and  _232
REMARK   97  A    between atoms: _232  and  _233
REMARK   98  A    between atoms: _232  and  _235
REMARK   99  A    between atoms: _235  and  _236
REMARK  100  A    between atoms: _242  and  _244
REMARK  101  A    between atoms: _244  and  _245
REMARK  102  A    between atoms: _244  and  _247
REMARK  103  A    between atoms: _247  and  _248
REMARK  104  A    between atoms: _251  and  _253
REMARK  105  A    between atoms: _253  and  _254
REMARK  106  A    between atoms: _253  and  _256
REMARK  107  A    between atoms: _256  and  _257
REMARK  108  A    between atoms: _260  and  _262
REMARK  109  A    between atoms: _262  and  _263
REMARK  110  A    between atoms: _262  and  _265
REMARK  111  A    between atoms: _265  and  _266
REMARK  112  A    between atoms: _266  and  _267
REMARK  113  A    between atoms: _267  and  _268
REMARK  114  A    between atoms: _277  and  _279
REMARK  115  A    between atoms: _279  and  _280
REMARK  116  A    between atoms: _279  and  _282
REMARK  117  A    between atoms: _282  and  _283
REMARK  118  A    between atoms: _286  and  _288
REMARK  119  A    between atoms: _288  and  _289
REMARK  120  A    between atoms: _288  and  _291
REMARK  121  A    between atoms: _291  and  _292
REMARK  122  A    between atoms: _292  and  _293
REMARK  123  A    between atoms: _298  and  _300
REMARK  124  A    between atoms: _300  and  _301
REMARK  125  A    between atoms: _300  and  _303
REMARK  126  A    between atoms: _303  and  _304
REMARK  127  A    between atoms: _306  and  _308
REMARK  128  A    between atoms: _308  and  _309
REMARK  129  A    between atoms: _311  and  _313
REMARK  130  A    between atoms: _313  and  _314
REMARK  131  A    between atoms: _313  and  _316
REMARK  132  A    between atoms: _316  and  _317
REMARK  133  A    between atoms: _322  and  _324
REMARK  134  A    between atoms: _324  and  _325
REMARK  135  A    between atoms: _327  and  _329
REMARK  136  A    between atoms: _329  and  _330
REMARK  137  A    between atoms: _329  and  _332
REMARK  138  A    between atoms: _332  and  _333
REMARK  139  A    between atoms: _339  and  _341
REMARK  140  A    between atoms: _341  and  _342
REMARK  141  A    between atoms: _341  and  _344
REMARK  142  A    between atoms: _344  and  _345
REMARK  143  A    between atoms: _348  and  _350
REMARK  144  A    between atoms: _350  and  _351
REMARK  145  A    between atoms: _350  and  _353
REMARK  146  A    between atoms: _353  and  _354
REMARK  147  A    between atoms: _354  and  _355
REMARK  148  A    between atoms: _358  and  _360
REMARK  149  A    between atoms: _360  and  _361
REMARK  150  A    between atoms: _360  and  _363
REMARK  151  A    between atoms: _363  and  _364
REMARK  152  A    between atoms: _367  and  _369
REMARK  153  A    between atoms: _369  and  _370
REMARK  154  A    between atoms: _369  and  _372
REMARK  155  A    between atoms: _375  and  _377
REMARK  156  A    between atoms: _377  and  _378
REMARK  157  A    between atoms: _377  and  _380
REMARK  158  A    between atoms: _380  and  _381
REMARK  159  A    between atoms: _384  and  _386
REMARK  160  A    between atoms: _386  and  _387
REMARK  161  A    between atoms: _386  and  _389
REMARK  162  A    between atoms: _389  and  _390
REMARK  163  A    between atoms: _395  and  _397
REMARK  164  A    between atoms: _397  and  _398
REMARK  165  A    between atoms: _400  and  _402
REMARK  166  A    between atoms: _402  and  _403
REMARK  167  A    between atoms: _402  and  _405
REMARK  168  A    between atoms: _405  and  _406
REMARK  169  A    between atoms: _406  and  _407
REMARK  170  A    between atoms: _409  and  _411
REMARK  171  A    between atoms: _411  and  _412
REMARK  172  A    between atoms: _411  and  _414
REMARK  173  A    between atoms: _417  and  _419
REMARK  174  A    between atoms: _419  and  _420
REMARK  175  A    between atoms: _419  and  _422
REMARK  176  A    between atoms: _422  and  _423
REMARK  177  A    between atoms: _425  and  _427
REMARK  178  A    between atoms: _427  and  _428
REMARK  179  A    between atoms: _427  and  _430
REMARK  180  A    between atoms: _430  and  _431
REMARK  181  A    between atoms: _433  and  _435
REMARK  182  A    between atoms: _435  and  _436
REMARK  183  A    between atoms: _435  and  _438
REMARK  184  A    between atoms: _438  and  _439
REMARK  185  A    between atoms: _439  and  _440
REMARK  186  A    between atoms: _445  and  _447
REMARK  187  A    between atoms: _447  and  _448
REMARK  188  A    between atoms: _451  and  _453
REMARK  189  A    between atoms: _453  and  _454
REMARK  190  A    between atoms: _453  and  _456
REMARK  191  A    between atoms: _456  and  _457
REMARK  192  A    between atoms: _457  and  _458
REMARK  193  A    between atoms: _460  and  _462
REMARK  194  A    between atoms: _462  and  _463
REMARK  195  A    between atoms: _462  and  _465
REMARK  196  A    between atoms: _465  and  _466
REMARK  197  A    between atoms: _471  and  _472
REMARK  198  A    between atoms: _474  and  _476
REMARK  199  A    between atoms: _476  and  _477
REMARK  200  A    between atoms: _476  and  _479
REMARK  201  A    between atoms: _479  and  _480
REMARK  202  A    between atoms: _483  and  _485
REMARK  203  A    between atoms: _485  and  _486
REMARK  204  A    between atoms: _485  and  _488
REMARK  205  A    between atoms: _488  and  _489
REMARK  206  A    between atoms: _491  and  _493
REMARK  207  A    between atoms: _493  and  _494
REMARK  208  A    between atoms: _493  and  _496
REMARK  209  A    between atoms: _496  and  _497
REMARK  210  A    between atoms: _500  and  _502
REMARK  211  A    between atoms: _502  and  _503
REMARK  212  A    between atoms: _502  and  _505
REMARK  213  A    between atoms: _505  and  _506
REMARK  214  A    between atoms: _506  and  _507
REMARK  215  A    between atoms: _509  and  _511
REMARK  216  A    between atoms: _511  and  _512
REMARK  217  A    between atoms: _511  and  _514
REMARK  218  A    between atoms: _514  and  _515
REMARK  219  A    between atoms: _520  and  _521
REMARK  220  A    between atoms: _523  and  _525
REMARK  221  A    between atoms: _525  and  _526
REMARK  222  A    between atoms: _525  and  _528
REMARK  223  A    between atoms: _528  and  _529
REMARK  224  A    between atoms: _529  and  _530
REMARK  225  A    between atoms: _530  and  _531
REMARK  226  A    between atoms: _540  and  _542
REMARK  227  A    between atoms: _542  and  _543
REMARK  228  A    between atoms: _542  and  _545
REMARK  229  A    between atoms: _545  and  _546
REMARK  230  A    between atoms: _548  and  _550
REMARK  231  A    between atoms: _550  and  _551
REMARK  232  A    between atoms: _550  and  _553
REMARK  233  A    between atoms: _553  and  _554
REMARK  234  A    between atoms: _559  and  _560
REMARK  235  A    between atoms: _562  and  _564
REMARK  236  A    between atoms: _564  and  _565
REMARK  237  A    between atoms: _568  and  _570
REMARK  238  A    between atoms: _570  and  _571
REMARK  239  A    between atoms: _574  and  _576
REMARK  240  A    between atoms: _576  and  _577
REMARK  241  A    between atoms: _576  and  _579
REMARK  242  A    between atoms: _579  and  _580
REMARK  243  A    between atoms: _580  and  _581
REMARK  244  A    between atoms: _581  and  _582
REMARK  245  A    between atoms: _591  and  _593
REMARK  246  A    between atoms: _593  and  _594
REMARK  247  A    between atoms: _593  and  _596
REMARK  248  A    between atoms: _599  and  _601
REMARK  249  A    between atoms: _601  and  _602
REMARK  250  A    between atoms: _604  and  _606
REMARK  251  A    between atoms: _606  and  _607
REMARK  252  A    between atoms: _606  and  _609
REMARK  253  A    between atoms: _609  and  _610
REMARK  254  A    between atoms: _613  and  _615
REMARK  255  A    between atoms: _615  and  _616
REMARK  256  A    between atoms: _619  and  _621
REMARK  257  A    between atoms: _621  and  _622
REMARK  258  A    between atoms: _621  and  _624
REMARK  259  A    between atoms: _624  and  _625
REMARK  260  A    between atoms: _628  and  _630
REMARK  261  A    between atoms: _630  and  _631
REMARK  262  A    between atoms: _630  and  _633
REMARK  263  A    between atoms: _633  and  _634
REMARK  264  A    between atoms: _639  and  _640
REMARK  265  A    between atoms: _642  and  _644
REMARK  266  A    between atoms: _644  and  _645
REMARK  267  A    between atoms: _644  and  _647
REMARK  268  A    between atoms: _647  and  _648
REMARK  269  A    between atoms: _648  and  _649
REMARK  270  A    between atoms: _651  and  _653
REMARK  271  A    between atoms: _653  and  _654
REMARK  272  A    between atoms: _653  and  _656
REMARK  273  A    between atoms: _656  and  _657
REMARK  274  A    between atoms: _657  and  _658
REMARK  275  A    between atoms: _661  and  _663
REMARK  276  A    between atoms: _663  and  _664
REMARK  277  A    between atoms: _663  and  _666
REMARK  278  A    between atoms: _666  and  _667
REMARK  279  A    between atoms: _673  and  _675
REMARK  280  A    between atoms: _675  and  _676
REMARK  281  A    between atoms: _675  and  _678
REMARK  282  A    between atoms: _678  and  _679
REMARK  283  A    between atoms: _684  and  _686
REMARK  284  A    between atoms: _686  and  _687
REMARK  285  A    between atoms: _686  and  _689
REMARK  286  A    between atoms: _689  and  _690
REMARK  287  A    between atoms: _700  and  _702
REMARK  288  A    between atoms: _702  and  _703
REMARK  289  A    between atoms: _702  and  _705
REMARK  290  A    between atoms: _708  and  _710
REMARK  291  A    between atoms: _710  and  _711
REMARK  292  A    between atoms: _710  and  _713
REMARK  293  A    between atoms: _713  and  _714
REMARK  294  A    between atoms: _717  and  _719
REMARK  295  A    between atoms: _719  and  _720
REMARK  296  A    between atoms: _719  and  _722
REMARK  297  A    between atoms: _722  and  _723
REMARK  298  A    between atoms: _723  and  _724
REMARK  299  A    between atoms: _726  and  _728
REMARK  300  A    between atoms: _728  and  _729
REMARK  301  A    between atoms: _728  and  _731
REMARK  302  A    between atoms: _731  and  _732
REMARK  303  A    between atoms: _735  and  _737
REMARK  304  A    between atoms: _737  and  _738
REMARK  305  A    between atoms: _737  and  _740
REMARK  306  A    between atoms: _740  and  _741
REMARK  307  A    between atoms: _744  and  _746
REMARK  308  A    between atoms: _746  and  _747
REMARK  309  A    between atoms: _746  and  _749
REMARK  310  A    between atoms: _749  and  _750
REMARK  311  A    between atoms: _753  and  _755
REMARK  312  A    between atoms: _755  and  _756
REMARK  313  A    between atoms: _755  and  _758
REMARK  314  A    between atoms: _758  and  _759
REMARK  315  A    between atoms: _762  and  _764
REMARK  316  A    between atoms: _764  and  _765
REMARK  317  A    between atoms: _767  and  _769
REMARK  318  A    between atoms: _769  and  _770
REMARK  319  A    between atoms: _769  and  _772
REMARK  320  A    between atoms: _772  and  _773
REMARK  321  A    between atoms: _775  and  _777
REMARK  322  A    between atoms: _777  and  _778
REMARK  323  A    between atoms: _777  and  _780
REMARK  324  A    between atoms: _780  and  _781
REMARK  325  A    between atoms: _791  and  _793
REMARK  326  A    between atoms: _793  and  _794
REMARK  327  A    between atoms: _793  and  _796
REMARK  328  A    between atoms: _796  and  _797
REMARK  329  A    between atoms: _799  and  _801
REMARK  330  A    between atoms: _801  and  _802
REMARK  331  A    between atoms: _801  and  _804
REMARK  332  A    between atoms: _804  and  _805
REMARK  333  A    between atoms: _808  and  _810
REMARK  334  A    between atoms: _810  and  _811
REMARK  335  A    between atoms: _814  and  _816
REMARK  336  A    between atoms: _816  and  _817
REMARK  337  A    between atoms: _816  and  _819
REMARK  338  A    between atoms: _819  and  _820
REMARK  339  A    between atoms: _822  and  _824
REMARK  340  A    between atoms: _824  and  _825
REMARK  341  A    between atoms: _824  and  _827
REMARK  342  A    between atoms: _827  and  _828
REMARK  343  A    between atoms: _828  and  _829
REMARK  344  A    between atoms: _832  and  _834
REMARK  345  A    between atoms: _834  and  _835
REMARK  346  A    between atoms: _834  and  _837
REMARK  347  A    between atoms: _837  and  _838
REMARK  348  A    between atoms: _840  and  _842
REMARK  349  A    between atoms: _842  and  _843
REMARK  350  A    between atoms: _842  and  _845
REMARK  351  A    between atoms: _845  and  _846
REMARK  352  A    between atoms: _846  and  _847
REMARK  353  A    between atoms: _852  and  _854
REMARK  354  A    between atoms: _854  and  _855
REMARK  355  A    between atoms: _854  and  _857
REMARK  356  A    between atoms: _857  and  _858
REMARK  357  A    between atoms: _858  and  _859
REMARK  358  A    between atoms: _864  and  _866
REMARK  359  A    between atoms: _866  and  _867
REMARK  360  A    between atoms: _866  and  _869
REMARK  361  A    between atoms: _869  and  _870
REMARK  362  A    between atoms: _873  and  _875
REMARK  363  A    between atoms: _875  and  _876
REMARK  364  A    between atoms: _875  and  _878
REMARK  365  A    between atoms: _878  and  _879
REMARK  366  A    between atoms: _882  and  _884
REMARK  367  A    between atoms: _884  and  _885
REMARK  368  A    between atoms: _884  and  _887
REMARK  369  A    between atoms: _887  and  _888
REMARK  370  A    between atoms: _895  and  _896
REMARK  371  A    between atoms: _901  and  _903
REMARK  372  A    between atoms: _903  and  _904
REMARK  373  A    between atoms: _903  and  _906
REMARK  374  A    between atoms: _906  and  _907
REMARK  375  A    between atoms: _912  and  _913
REMARK  376  A    between atoms: _915  and  _917
REMARK  377  A    between atoms: _917  and  _918
REMARK  378  A    between atoms: _917  and  _920
REMARK  379  A    between atoms: _920  and  _921
REMARK  380  A    between atoms: _926  and  _928
REMARK  381  A    between atoms: _928  and  _929
REMARK  382  A    between atoms: _928  and  _931
REMARK  383  A    between atoms: _931  and  _932
REMARK  384  A    between atoms: _938  and  _940
REMARK  385  A    between atoms: _940  and  _941
REMARK  386  A    between atoms: _940  and  _943
REMARK  387  A    between atoms: _943  and  _944
REMARK  388  A    between atoms: _947  and  _949
REMARK  389  A    between atoms: _949  and  _950
REMARK  390  A    between atoms: _949  and  _952
REMARK  391  A    between atoms: _952  and  _953
REMARK  392  A    between atoms: _958  and  _960
REMARK  393  A    between atoms: _960  and  _961
REMARK  394  A    between atoms: _960  and  _963
REMARK  395  A    between atoms: _963  and  _964
REMARK  396  A    between atoms: _970  and  _972
REMARK  397  A    between atoms: _972  and  _973
REMARK  398  A    between atoms: _972  and  _975
REMARK  399  A    between atoms: _975  and  _976
REMARK  400  A    between atoms: _976  and  _977
REMARK  401  A    between atoms: _979  and  _981
REMARK  402  A    between atoms: _981  and  _982
REMARK  403  A    between atoms: _981  and  _984
REMARK  404  A    between atoms: _984  and  _985
REMARK  405  A    between atoms: _988  and  _990
REMARK  406  A    between atoms: _990  and  _991
REMARK  407  A    between atoms: _990  and  _993
REMARK  408  A    between atoms: _993  and  _994
REMARK  409  A    between atoms: _999  and  _1001
REMARK  410  A    between atoms: _1001  and  _1002
REMARK  411  A    between atoms: _1001  and  _1004
REMARK  412  A    between atoms: _1004  and  _1005
REMARK  413  A    between atoms: _1010  and  _1011
REMARK                            x       y       z     vdW  Elec       q    Type
REMARK                         _______ _______ _______ _____ _____    ______ ____
ROOT
ATOM      1  O   HOH     1      -4.332   3.020  22.566  0.00  0.00    +0.000 OA
ENDROOT
TORSDOF 0
REMARK  Name = ../refined-set-2016/3drg/3drg_pocket.pdb
REMARK  413 active torsions:
REMARK  status: ('A' for Active; 'I' for Inactive)
REMARK    1  A    between atoms: _1  and  _3
REMARK    2  A    between atoms: _3  and  _4
REMARK    3  A    between atoms: _3  and  _6
REMARK    4  A    between atoms: _6  and  _7
REMARK    5  A    between atoms: _12  and  _13
REMARK    6  A    between atoms: _15  and  _17
REMARK    7  A    between atoms: _17  and  _18
REMARK    8  A    between atoms: _17  and  _20
REMARK    9  A    between atoms: _20  and  _21
REMARK   10  A    between atoms: _21  and  _22
REMARK   11  A    between atoms: _27  and  _29
REMARK   12  A    between atoms: _29  and  _30
REMARK   13  A    between atoms: _29  and  _32
REMARK   14  A    between atoms: _32  and  _33
REMARK   15  A    between atoms: _35  and  _37
REMARK   16  A    between atoms: _37  and  _38
REMARK   17  A    between atoms: _37  and  _40
REMARK   18  A    between atoms: _40  and  _41
REMARK   19  A    between atoms: _44  and  _46
REMARK   20  A    between atoms: _46  and  _47
REMARK   21  A    between atoms: _46  and  _49
REMARK   22  A    between atoms: _49  and  _50
REMARK   23  A    between atoms: _52  and  _54
REMARK   24  A    between atoms: _54  and  _55
REMARK   25  A    between atoms: _54  and  _57
REMARK   26  A    between atoms: _57  and  _58
REMARK   27  A    between atoms: _61  and  _63
REMARK   28  A    between atoms: _63  and  _64
REMARK   29  A    between atoms: _63  and  _66
REMARK   30  A    between atoms: _66  and  _67
REMARK   31  A    between atoms: _69  and  _71
REMARK   32  A    between atoms: _71  and  _72
REMARK   33  A    between atoms: _74  and  _76
REMARK   34  A    between atoms: _76  and  _77
REMARK   35  A    between atoms: _76  and  _79
REMARK   36  A    between atoms: _79  and  _80
REMARK   37  A    between atoms: _82  and  _84
REMARK   38  A    between atoms: _84  and  _85
REMARK   39  A    between atoms: _84  and  _87
REMARK   40  A    between atoms: _87  and  _88
REMARK   41  A    between atoms: _93  and  _95
REMARK   42  A    between atoms: _95  and  _96
REMARK   43  A    between atoms: _95  and  _98
REMARK   44  A    between atoms: _98  and  _99
REMARK   45  A    between atoms: _102  and  _104
REMARK   46  A    between atoms: _104  and  _105
REMARK   47  A    between atoms: _108  and  _110
REMARK   48  A    between atoms: _110  and  _111
REMARK   49  A    between atoms: _110  and  _113
REMARK   50  A    between atoms: _113  and  _114
REMARK   51  A    between atoms: _117  and  _119
REMARK   52  A    between atoms: _119  and  _120
REMARK   53  A    between atoms: _119  and  _122
REMARK   54  A    between atoms: _122  and  _123
REMARK   55  A    between atoms: _129  and  _131
REMARK   56  A    between atoms: _131  and  _132
REMARK   57  A    between atoms: _135  and  _137
REMARK   58  A    between atoms: _137  and  _138
REMARK   59  A    between atoms: _137  and  _140
REMARK   60  A    between atoms: _140  and  _141
REMARK   61  A    between atoms: _144  and  _146
REMARK   62  A    between atoms: _146  and  _147
REMARK   63  A    between atoms: _146  and  _149
REMARK   64  A    between atoms: _149  and  _150
REMARK   65  A    between atoms: _152  and  _154
REMARK   66  A    between atoms: _154  and  _155
REMARK   67  A    between atoms: _157  and  _159
REMARK   68  A    between atoms: _159  and  _160
REMARK   69  A    between atoms: _162  and  _164
REMARK   70  A    between atoms: _164  and  _165
REMARK   71  A    between atoms: _164  and  _167
REMARK   72  A    between atoms: _167  and  _168
REMARK   73  A    between atoms: _168  and  _169
REMARK   74  A    between atoms: _174  and  _176
REMARK   75  A    between atoms: _176  and  _177
REMARK   76  A    between atoms: _176  and  _179
REMARK   77  A    between atoms: _179  and  _180
REMARK   78  A    between atoms: _183  and  _185
REMARK   79  A    between atoms: _185  and  _186
REMARK   80  A    between atoms: _188  and  _190
REMARK   81  A    between atoms: _190  and  _191
REMARK   82  A    between atoms: _190  and  _193
REMARK   83  A    between atoms: _193  and  _194
REMARK   84  A    between atoms: _197  and  _199
REMARK   85  A    between atoms: _199  and  _200
REMARK   86  A    between atoms: _199  and  _202
REMARK   87  A    between atoms: _202  and  _203
REMARK   88  A    between atoms: _209  and  _211
REMARK   89  A    between atoms: _211  and  _212
REMARK   90  A    between atoms: _211  and  _214
REMARK   91  A    between atoms: _214  and  _215
REMARK   92  A    between atoms: _218  and  _220
REMARK   93  A    between atoms: _220  and  _221
REMARK   94  A    between atoms: _220  and  _223
REMARK   95  A    between atoms: _223  and  _224
REMARK   96  A    between atoms: _230  and  _232
REMARK   97  A    between atoms: _232  and  _233
REMARK   98  A    between atoms: _232  and  _235
REMARK   99  A    between atoms: _235  and  _236
REMARK  100  A    between atoms: _242  and  _244
REMARK  101  A    between atoms: _244  and  _245
REMARK  102  A    between atoms: _244  and  _247
REMARK  103  A    between atoms: _247  and  _248
REMARK  104  A    between atoms: _251  and  _253
REMARK  105  A    between atoms: _253  and  _254
REMARK  106  A    between atoms: _253  and  _256
REMARK  107  A    between atoms: _256  and  _257
REMARK  108  A    between atoms: _260  and  _262
REMARK  109  A    between atoms: _262  and  _263
REMARK  110  A    between atoms: _262  and  _265
REMARK  111  A    between atoms: _265  and  _266
REMARK  112  A    between atoms: _266  and  _267
REMARK  113  A    between atoms: _267  and  _268
REMARK  114  A    between atoms: _277  and  _279
REMARK  115  A    between atoms: _279  and  _280
REMARK  116  A    between atoms: _279  and  _282
REMARK  117  A    between atoms: _282  and  _283
REMARK  118  A    between atoms: _286  and  _288
REMARK  119  A    between atoms: _288  and  _289
REMARK  120  A    between atoms: _288  and  _291
REMARK  121  A    between atoms: _291  and  _292
REMARK  122  A    between atoms: _292  and  _293
REMARK  123  A    between atoms: _298  and  _300
REMARK  124  A    between atoms: _300  and  _301
REMARK  125  A    between atoms: _300  and  _303
REMARK  126  A    between atoms: _303  and  _304
REMARK  127  A    between atoms: _306  and  _308
REMARK  128  A    between atoms: _308  and  _309
REMARK  129  A    between atoms: _311  and  _313
REMARK  130  A    between atoms: _313  and  _314
REMARK  131  A    between atoms: _313  and  _316
REMARK  132  A    between atoms: _316  and  _317
REMARK  133  A    between atoms: _322  and  _324
REMARK  134  A    between atoms: _324  and  _325
REMARK  135  A    between atoms: _327  and  _329
REMARK  136  A    between atoms: _329  and  _330
REMARK  137  A    between atoms: _329  and  _332
REMARK  138  A    between atoms: _332  and  _333
REMARK  139  A    between atoms: _339  and  _341
REMARK  140  A    between atoms: _341  and  _342
REMARK  141  A    between atoms: _341  and  _344
REMARK  142  A    between atoms: _344  and  _345
REMARK  143  A    between atoms: _348  and  _350
REMARK  144  A    between atoms: _350  and  _351
REMARK  145  A    between atoms: _350  and  _353
REMARK  146  A    between atoms: _353  and  _354
REMARK  147  A    between atoms: _354  and  _355
REMARK  148  A    between atoms: _358  and  _360
REMARK  149  A    between atoms: _360  and  _361
REMARK  150  A    between atoms: _360  and  _363
REMARK  151  A    between atoms: _363  and  _364
REMARK  152  A    between atoms: _367  and  _369
REMARK  153  A    between atoms: _369  and  _370
REMARK  154  A    between atoms: _369  and  _372
REMARK  155  A    between atoms: _375  and  _377
REMARK  156  A    between atoms: _377  and  _378
REMARK  157  A    between atoms: _377  and  _380
REMARK  158  A    between atoms: _380  and  _381
REMARK  159  A    between atoms: _384  and  _386
REMARK  160  A    between atoms: _386  and  _387
REMARK  161  A    between atoms: _386  and  _389
REMARK  162  A    between atoms: _389  and  _390
REMARK  163  A    between atoms: _395  and  _397
REMARK  164  A    between atoms: _397  and  _398
REMARK  165  A    between atoms: _400  and  _402
REMARK  166  A    between atoms: _402  and  _403
REMARK  167  A    between atoms: _402  and  _405
REMARK  168  A    between atoms: _405  and  _406
REMARK  169  A    between atoms: _406  and  _407
REMARK  170  A    between atoms: _409  and  _411
REMARK  171  A    between atoms: _411  and  _412
REMARK  172  A    between atoms: _411  and  _414
REMARK  173  A    between atoms: _417  and  _419
REMARK  174  A    between atoms: _419  and  _420
REMARK  175  A    between atoms: _419  and  _422
REMARK  176  A    between atoms: _422  and  _423
REMARK  177  A    between atoms: _425  and  _427
REMARK  178  A    between atoms: _427  and  _428
REMARK  179  A    between atoms: _427  and  _430
REMARK  180  A    between atoms: _430  and  _431
REMARK  181  A    between atoms: _433  and  _435
REMARK  182  A    between atoms: _435  and  _436
REMARK  183  A    between atoms: _435  and  _438
REMARK  184  A    between atoms: _438  and  _439
REMARK  185  A    between atoms: _439  and  _440
REMARK  186  A    between atoms: _445  and  _447
REMARK  187  A    between atoms: _447  and  _448
REMARK  188  A    between atoms: _451  and  _453
REMARK  189  A    between atoms: _453  and  _454
REMARK  190  A    between atoms: _453  and  _456
REMARK  191  A    between atoms: _456  and  _457
REMARK  192  A    between atoms: _457  and  _458
REMARK  193  A    between atoms: _460  and  _462
REMARK  194  A    between atoms: _462  and  _463
REMARK  195  A    between atoms: _462  and  _465
REMARK  196  A    between atoms: _465  and  _466
REMARK  197  A    between atoms: _471  and  _472
REMARK  198  A    between atoms: _474  and  _476
REMARK  199  A    between atoms: _476  and  _477
REMARK  200  A    between atoms: _476  and  _479
REMARK  201  A    between atoms: _479  and  _480
REMARK  202  A    between atoms: _483  and  _485
REMARK  203  A    between atoms: _485  and  _486
REMARK  204  A    between atoms: _485  and  _488
REMARK  205  A    between atoms: _488  and  _489
REMARK  206  A    between atoms: _491  and  _493
REMARK  207  A    between atoms: _493  and  _494
REMARK  208  A    between atoms: _493  and  _496
REMARK  209  A    between atoms: _496  and  _497
REMARK  210  A    between atoms: _500  and  _502
REMARK  211  A    between atoms: _502  and  _503
REMARK  212  A    between atoms: _502  and  _505
REMARK  213  A    between atoms: _505  and  _506
REMARK  214  A    between atoms: _506  and  _507
REMARK  215  A    between atoms: _509  and  _511
REMARK  216  A    between atoms: _511  and  _512
REMARK  217  A    between atoms: _511  and  _514
REMARK  218  A    between atoms: _514  and  _515
REMARK  219  A    between atoms: _520  and  _521
REMARK  220  A    between atoms: _523  and  _525
REMARK  221  A    between atoms: _525  and  _526
REMARK  222  A    between atoms: _525  and  _528
REMARK  223  A    between atoms: _528  and  _529
REMARK  224  A    between atoms: _529  and  _530
REMARK  225  A    between atoms: _530  and  _531
REMARK  226  A    between atoms: _540  and  _542
REMARK  227  A    between atoms: _542  and  _543
REMARK  228  A    between atoms: _542  and  _545
REMARK  229  A    between atoms: _545  and  _546
REMARK  230  A    between atoms: _548  and  _550
REMARK  231  A    between atoms: _550  and  _551
REMARK  232  A    between atoms: _550  and  _553
REMARK  233  A    between atoms: _553  and  _554
REMARK  234  A    between atoms: _559  and  _560
REMARK  235  A    between atoms: _562  and  _564
REMARK  236  A    between atoms: _564  and  _565
REMARK  237  A    between atoms: _568  and  _570
REMARK  238  A    between atoms: _570  and  _571
REMARK  239  A    between atoms: _574  and  _576
REMARK  240  A    between atoms: _576  and  _577
REMARK  241  A    between atoms: _576  and  _579
REMARK  242  A    between atoms: _579  and  _580
REMARK  243  A    between atoms: _580  and  _581
REMARK  244  A    between atoms: _581  and  _582
REMARK  245  A    between atoms: _591  and  _593
REMARK  246  A    between atoms: _593  and  _594
REMARK  247  A    between atoms: _593  and  _596
REMARK  248  A    between atoms: _599  and  _601
REMARK  249  A    between atoms: _601  and  _602
REMARK  250  A    between atoms: _604  and  _606
REMARK  251  A    between atoms: _606  and  _607
REMARK  252  A    between atoms: _606  and  _609
REMARK  253  A    between atoms: _609  and  _610
REMARK  254  A    between atoms: _613  and  _615
REMARK  255  A    between atoms: _615  and  _616
REMARK  256  A    between atoms: _619  and  _621
REMARK  257  A    between atoms: _621  and  _622
REMARK  258  A    between atoms: _621  and  _624
REMARK  259  A    between atoms: _624  and  _625
REMARK  260  A    between atoms: _628  and  _630
REMARK  261  A    between atoms: _630  and  _631
REMARK  262  A    between atoms: _630  and  _633
REMARK  263  A    between atoms: _633  and  _634
REMARK  264  A    between atoms: _639  and  _640
REMARK  265  A    between atoms: _642  and  _644
REMARK  266  A    between atoms: _644  and  _645
REMARK  267  A    between atoms: _644  and  _647
REMARK  268  A    between atoms: _647  and  _648
REMARK  269  A    between atoms: _648  and  _649
REMARK  270  A    between atoms: _651  and  _653
REMARK  271  A    between atoms: _653  and  _654
REMARK  272  A    between atoms: _653  and  _656
REMARK  273  A    between atoms: _656  and  _657
REMARK  274  A    between atoms: _657  and  _658
REMARK  275  A    between atoms: _661  and  _663
REMARK  276  A    between atoms: _663  and  _664
REMARK  277  A    between atoms: _663  and  _666
REMARK  278  A    between atoms: _666  and  _667
REMARK  279  A    between atoms: _673  and  _675
REMARK  280  A    between atoms: _675  and  _676
REMARK  281  A    between atoms: _675  and  _678
REMARK  282  A    between atoms: _678  and  _679
REMARK  283  A    between atoms: _684  and  _686
REMARK  284  A    between atoms: _686  and  _687
REMARK  285  A    between atoms: _686  and  _689
REMARK  286  A    between atoms: _689  and  _690
REMARK  287  A    between atoms: _700  and  _702
REMARK  288  A    between atoms: _702  and  _703
REMARK  289  A    between atoms: _702  and  _705
REMARK  290  A    between atoms: _708  and  _710
REMARK  291  A    between atoms: _710  and  _711
REMARK  292  A    between atoms: _710  and  _713
REMARK  293  A    between atoms: _713  and  _714
REMARK  294  A    between atoms: _717  and  _719
REMARK  295  A    between atoms: _719  and  _720
REMARK  296  A    between atoms: _719  and  _722
REMARK  297  A    between atoms: _722  and  _723
REMARK  298  A    between atoms: _723  and  _724
REMARK  299  A    between atoms: _726  and  _728
REMARK  300  A    between atoms: _728  and  _729
REMARK  301  A    between atoms: _728  and  _731
REMARK  302  A    between atoms: _731  and  _732
REMARK  303  A    between atoms: _735  and  _737
REMARK  304  A    between atoms: _737  and  _738
REMARK  305  A    between atoms: _737  and  _740
REMARK  306  A    between atoms: _740  and  _741
REMARK  307  A    between atoms: _744  and  _746
REMARK  308  A    between atoms: _746  and  _747
REMARK  309  A    between atoms: _746  and  _749
REMARK  310  A    between atoms: _749  and  _750
REMARK  311  A    between atoms: _753  and  _755
REMARK  312  A    between atoms: _755  and  _756
REMARK  313  A    between atoms: _755  and  _758
REMARK  314  A    between atoms: _758  and  _759
REMARK  315  A    between atoms: _762  and  _764
REMARK  316  A    between atoms: _764  and  _765
REMARK  317  A    between atoms: _767  and  _769
REMARK  318  A    between atoms: _769  and  _770
REMARK  319  A    between atoms: _769  and  _772
REMARK  320  A    between atoms: _772  and  _773
REMARK  321  A    between atoms: _775  and  _777
REMARK  322  A    between atoms: _777  and  _778
REMARK  323  A    between atoms: _777  and  _780
REMARK  324  A    between atoms: _780  and  _781
REMARK  325  A    between atoms: _791  and  _793
REMARK  326  A    between atoms: _793  and  _794
REMARK  327  A    between atoms: _793  and  _796
REMARK  328  A    between atoms: _796  and  _797
REMARK  329  A    between atoms: _799  and  _801
REMARK  330  A    between atoms: _801  and  _802
REMARK  331  A    between atoms: _801  and  _804
REMARK  332  A    between atoms: _804  and  _805
REMARK  333  A    between atoms: _808  and  _810
REMARK  334  A    between atoms: _810  and  _811
REMARK  335  A    between atoms: _814  and  _816
REMARK  336  A    between atoms: _816  and  _817
REMARK  337  A    between atoms: _816  and  _819
REMARK  338  A    between atoms: _819  and  _820
REMARK  339  A    between atoms: _822  and  _824
REMARK  340  A    between atoms: _824  and  _825
REMARK  341  A    between atoms: _824  and  _827
REMARK  342  A    between atoms: _827  and  _828
REMARK  343  A    between atoms: _828  and  _829
REMARK  344  A    between atoms: _832  and  _834
REMARK  345  A    between atoms: _834  and  _835
REMARK  346  A    between atoms: _834  and  _837
REMARK  347  A    between atoms: _837  and  _838
REMARK  348  A    between atoms: _840  and  _842
REMARK  349  A    between atoms: _842  and  _843
REMARK  350  A    between atoms: _842  and  _845
REMARK  351  A    between atoms: _845  and  _846
REMARK  352  A    between atoms: _846  and  _847
REMARK  353  A    between atoms: _852  and  _854
REMARK  354  A    between atoms: _854  and  _855
REMARK  355  A    between atoms: _854  and  _857
REMARK  356  A    between atoms: _857  and  _858
REMARK  357  A    between atoms: _858  and  _859
REMARK  358  A    between atoms: _864  and  _866
REMARK  359  A    between atoms: _866  and  _867
REMARK  360  A    between atoms: _866  and  _869
REMARK  361  A    between atoms: _869  and  _870
REMARK  362  A    between atoms: _873  and  _875
REMARK  363  A    between atoms: _875  and  _876
REMARK  364  A    between atoms: _875  and  _878
REMARK  365  A    between atoms: _878  and  _879
REMARK  366  A    between atoms: _882  and  _884
REMARK  367  A    between atoms: _884  and  _885
REMARK  368  A    between atoms: _884  and  _887
REMARK  369  A    between atoms: _887  and  _888
REMARK  370  A    between atoms: _895  and  _896
REMARK  371  A    between atoms: _901  and  _903
REMARK  372  A    between atoms: _903  and  _904
REMARK  373  A    between atoms: _903  and  _906
REMARK  374  A    between atoms: _906  and  _907
REMARK  375  A    between atoms: _912  and  _913
REMARK  376  A    between atoms: _915  and  _917
REMARK  377  A    between atoms: _917  and  _918
REMARK  378  A    between atoms: _917  and  _920
REMARK  379  A    between atoms: _920  and  _921
REMARK  380  A    between atoms: _926  and  _928
REMARK  381  A    between atoms: _928  and  _929
REMARK  382  A    between atoms: _928  and  _931
REMARK  383  A    between atoms: _931  and  _932
REMARK  384  A    between atoms: _938  and  _940
REMARK  385  A    between atoms: _940  and  _941
REMARK  386  A    between atoms: _940  and  _943
REMARK  387  A    between atoms: _943  and  _944
REMARK  388  A    between atoms: _947  and  _949
REMARK  389  A    between atoms: _949  and  _950
REMARK  390  A    between atoms: _949  and  _952
REMARK  391  A    between atoms: _952  and  _953
REMARK  392  A    between atoms: _958  and  _960
REMARK  393  A    between atoms: _960  and  _961
REMARK  394  A    between atoms: _960  and  _963
REMARK  395  A    between atoms: _963  and  _964
REMARK  396  A    between atoms: _970  and  _972
REMARK  397  A    between atoms: _972  and  _973
REMARK  398  A    between atoms: _972  and  _975
REMARK  399  A    between atoms: _975  and  _976
REMARK  400  A    between atoms: _976  and  _977
REMARK  401  A    between atoms: _979  and  _981
REMARK  402  A    between atoms: _981  and  _982
REMARK  403  A    between atoms: _981  and  _984
REMARK  404  A    between atoms: _984  and  _985
REMARK  405  A    between atoms: _988  and  _990
REMARK  406  A    between atoms: _990  and  _991
REMARK  407  A    between atoms: _990  and  _993
REMARK  408  A    between atoms: _993  and  _994
REMARK  409  A    between atoms: _999  and  _1001
REMARK  410  A    between atoms: _1001  and  _1002
REMARK  411  A    between atoms: _1001  and  _1004
REMARK  412  A    between atoms: _1004  and  _1005
REMARK  413  A    between atoms: _1010  and  _1011
REMARK                            x       y       z     vdW  Elec       q    Type
REMARK                         _______ _______ _______ _____ _____    ______ ____
ROOT
ATOM      1  O   HOH     1      -3.668 -19.282  24.540  0.00  0.00    +0.000 OA
ENDROOT
TORSDOF 0
REMARK  Name = ../refined-set-2016/3drg/3drg_pocket.pdb
REMARK  413 active torsions:
REMARK  status: ('A' for Active; 'I' for Inactive)
REMARK    1  A    between atoms: _1  and  _3
REMARK    2  A    between atoms: _3  and  _4
REMARK    3  A    between atoms: _3  and  _6
REMARK    4  A    between atoms: _6  and  _7
REMARK    5  A    between atoms: _12  and  _13
REMARK    6  A    between atoms: _15  and  _17
REMARK    7  A    between atoms: _17  and  _18
REMARK    8  A    between atoms: _17  and  _20
REMARK    9  A    between atoms: _20  and  _21
REMARK   10  A    between atoms: _21  and  _22
REMARK   11  A    between atoms: _27  and  _29
REMARK   12  A    between atoms: _29  and  _30
REMARK   13  A    between atoms: _29  and  _32
REMARK   14  A    between atoms: _32  and  _33
REMARK   15  A    between atoms: _35  and  _37
REMARK   16  A    between atoms: _37  and  _38
REMARK   17  A    between atoms: _37  and  _40
REMARK   18  A    between atoms: _40  and  _41
REMARK   19  A    between atoms: _44  and  _46
REMARK   20  A    between atoms: _46  and  _47
REMARK   21  A    between atoms: _46  and  _49
REMARK   22  A    between atoms: _49  and  _50
REMARK   23  A    between atoms: _52  and  _54
REMARK   24  A    between atoms: _54  and  _55
REMARK   25  A    between atoms: _54  and  _57
REMARK   26  A    between atoms: _57  and  _58
REMARK   27  A    between atoms: _61  and  _63
REMARK   28  A    between atoms: _63  and  _64
REMARK   29  A    between atoms: _63  and  _66
REMARK   30  A    between atoms: _66  and  _67
REMARK   31  A    between atoms: _69  and  _71
REMARK   32  A    between atoms: _71  and  _72
REMARK   33  A    between atoms: _74  and  _76
REMARK   34  A    between atoms: _76  and  _77
REMARK   35  A    between atoms: _76  and  _79
REMARK   36  A    between atoms: _79  and  _80
REMARK   37  A    between atoms: _82  and  _84
REMARK   38  A    between atoms: _84  and  _85
REMARK   39  A    between atoms: _84  and  _87
REMARK   40  A    between atoms: _87  and  _88
REMARK   41  A    between atoms: _93  and  _95
REMARK   42  A    between atoms: _95  and  _96
REMARK   43  A    between atoms: _95  and  _98
REMARK   44  A    between atoms: _98  and  _99
REMARK   45  A    between atoms: _102  and  _104
REMARK   46  A    between atoms: _104  and  _105
REMARK   47  A    between atoms: _108  and  _110
REMARK   48  A    between atoms: _110  and  _111
REMARK   49  A    between atoms: _110  and  _113
REMARK   50  A    between atoms: _113  and  _114
REMARK   51  A    between atoms: _117  and  _119
REMARK   52  A    between atoms: _119  and  _120
REMARK   53  A    between atoms: _119  and  _122
REMARK   54  A    between atoms: _122  and  _123
REMARK   55  A    between atoms: _129  and  _131
REMARK   56  A    between atoms: _131  and  _132
REMARK   57  A    between atoms: _135  and  _137
REMARK   58  A    between atoms: _137  and  _138
REMARK   59  A    between atoms: _137  and  _140
REMARK   60  A    between atoms: _140  and  _141
REMARK   61  A    between atoms: _144  and  _146
REMARK   62  A    between atoms: _146  and  _147
REMARK   63  A    between atoms: _146  and  _149
REMARK   64  A    between atoms: _149  and  _150
REMARK   65  A    between atoms: _152  and  _154
REMARK   66  A    between atoms: _154  and  _155
REMARK   67  A    between atoms: _157  and  _159
REMARK   68  A    between atoms: _159  and  _160
REMARK   69  A    between atoms: _162  and  _164
REMARK   70  A    between atoms: _164  and  _165
REMARK   71  A    between atoms: _164  and  _167
REMARK   72  A    between atoms: _167  and  _168
REMARK   73  A    between atoms: _168  and  _169
REMARK   74  A    between atoms: _174  and  _176
REMARK   75  A    between atoms: _176  and  _177
REMARK   76  A    between atoms: _176  and  _179
REMARK   77  A    between atoms: _179  and  _180
REMARK   78  A    between atoms: _183  and  _185
REMARK   79  A    between atoms: _185  and  _186
REMARK   80  A    between atoms: _188  and  _190
REMARK   81  A    between atoms: _190  and  _191
REMARK   82  A    between atoms: _190  and  _193
REMARK   83  A    between atoms: _193  and  _194
REMARK   84  A    between atoms: _197  and  _199
REMARK   85  A    between atoms: _199  and  _200
REMARK   86  A    between atoms: _199  and  _202
REMARK   87  A    between atoms: _202  and  _203
REMARK   88  A    between atoms: _209  and  _211
REMARK   89  A    between atoms: _211  and  _212
REMARK   90  A    between atoms: _211  and  _214
REMARK   91  A    between atoms: _214  and  _215
REMARK   92  A    between atoms: _218  and  _220
REMARK   93  A    between atoms: _220  and  _221
REMARK   94  A    between atoms: _220  and  _223
REMARK   95  A    between atoms: _223  and  _224
REMARK   96  A    between atoms: _230  and  _232
REMARK   97  A    between atoms: _232  and  _233
REMARK   98  A    between atoms: _232  and  _235
REMARK   99  A    between atoms: _235  and  _236
REMARK  100  A    between atoms: _242  and  _244
REMARK  101  A    between atoms: _244  and  _245
REMARK  102  A    between atoms: _244  and  _247
REMARK  103  A    between atoms: _247  and  _248
REMARK  104  A    between atoms: _251  and  _253
REMARK  105  A    between atoms: _253  and  _254
REMARK  106  A    between atoms: _253  and  _256
REMARK  107  A    between atoms: _256  and  _257
REMARK  108  A    between atoms: _260  and  _262
REMARK  109  A    between atoms: _262  and  _263
REMARK  110  A    between atoms: _262  and  _265
REMARK  111  A    between atoms: _265  and  _266
REMARK  112  A    between atoms: _266  and  _267
REMARK  113  A    between atoms: _267  and  _268
REMARK  114  A    between atoms: _277  and  _279
REMARK  115  A    between atoms: _279  and  _280
REMARK  116  A    between atoms: _279  and  _282
REMARK  117  A    between atoms: _282  and  _283
REMARK  118  A    between atoms: _286  and  _288
REMARK  119  A    between atoms: _288  and  _289
REMARK  120  A    between atoms: _288  and  _291
REMARK  121  A    between atoms: _291  and  _292
REMARK  122  A    between atoms: _292  and  _293
REMARK  123  A    between atoms: _298  and  _300
REMARK  124  A    between atoms: _300  and  _301
REMARK  125  A    between atoms: _300  and  _303
REMARK  126  A    between atoms: _303  and  _304
REMARK  127  A    between atoms: _306  and  _308
REMARK  128  A    between atoms: _308  and  _309
REMARK  129  A    between atoms: _311  and  _313
REMARK  130  A    between atoms: _313  and  _314
REMARK  131  A    between atoms: _313  and  _316
REMARK  132  A    between atoms: _316  and  _317
REMARK  133  A    between atoms: _322  and  _324
REMARK  134  A    between atoms: _324  and  _325
REMARK  135  A    between atoms: _327  and  _329
REMARK  136  A    between atoms: _329  and  _330
REMARK  137  A    between atoms: _329  and  _332
REMARK  138  A    between atoms: _332  and  _333
REMARK  139  A    between atoms: _339  and  _341
REMARK  140  A    between atoms: _341  and  _342
REMARK  141  A    between atoms: _341  and  _344
REMARK  142  A    between atoms: _344  and  _345
REMARK  143  A    between atoms: _348  and  _350
REMARK  144  A    between atoms: _350  and  _351
REMARK  145  A    between atoms: _350  and  _353
REMARK  146  A    between atoms: _353  and  _354
REMARK  147  A    between atoms: _354  and  _355
REMARK  148  A    between atoms: _358  and  _360
REMARK  149  A    between atoms: _360  and  _361
REMARK  150  A    between atoms: _360  and  _363
REMARK  151  A    between atoms: _363  and  _364
REMARK  152  A    between atoms: _367  and  _369
REMARK  153  A    between atoms: _369  and  _370
REMARK  154  A    between atoms: _369  and  _372
REMARK  155  A    between atoms: _375  and  _377
REMARK  156  A    between atoms: _377  and  _378
REMARK  157  A    between atoms: _377  and  _380
REMARK  158  A    between atoms: _380  and  _381
REMARK  159  A    between atoms: _384  and  _386
REMARK  160  A    between atoms: _386  and  _387
REMARK  161  A    between atoms: _386  and  _389
REMARK  162  A    between atoms: _389  and  _390
REMARK  163  A    between atoms: _395  and  _397
REMARK  164  A    between atoms: _397  and  _398
REMARK  165  A    between atoms: _400  and  _402
REMARK  166  A    between atoms: _402  and  _403
REMARK  167  A    between atoms: _402  and  _405
REMARK  168  A    between atoms: _405  and  _406
REMARK  169  A    between atoms: _406  and  _407
REMARK  170  A    between atoms: _409  and  _411
REMARK  171  A    between atoms: _411  and  _412
REMARK  172  A    between atoms: _411  and  _414
REMARK  173  A    between atoms: _417  and  _419
REMARK  174  A    between atoms: _419  and  _420
REMARK  175  A    between atoms: _419  and  _422
REMARK  176  A    between atoms: _422  and  _423
REMARK  177  A    between atoms: _425  and  _427
REMARK  178  A    between atoms: _427  and  _428
REMARK  179  A    between atoms: _427  and  _430
REMARK  180  A    between atoms: _430  and  _431
REMARK  181  A    between atoms: _433  and  _435
REMARK  182  A    between atoms: _435  and  _436
REMARK  183  A    between atoms: _435  and  _438
REMARK  184  A    between atoms: _438  and  _439
REMARK  185  A    between atoms: _439  and  _440
REMARK  186  A    between atoms: _445  and  _447
REMARK  187  A    between atoms: _447  and  _448
REMARK  188  A    between atoms: _451  and  _453
REMARK  189  A    between atoms: _453  and  _454
REMARK  190  A    between atoms: _453  and  _456
REMARK  191  A    between atoms: _456  and  _457
REMARK  192  A    between atoms: _457  and  _458
REMARK  193  A    between atoms: _460  and  _462
REMARK  194  A    between atoms: _462  and  _463
REMARK  195  A    between atoms: _462  and  _465
REMARK  196  A    between atoms: _465  and  _466
REMARK  197  A    between atoms: _471  and  _472
REMARK  198  A    between atoms: _474  and  _476
REMARK  199  A    between atoms: _476  and  _477
REMARK  200  A    between atoms: _476  and  _479
REMARK  201  A    between atoms: _479  and  _480
REMARK  202  A    between atoms: _483  and  _485
REMARK  203  A    between atoms: _485  and  _486
REMARK  204  A    between atoms: _485  and  _488
REMARK  205  A    between atoms: _488  and  _489
REMARK  206  A    between atoms: _491  and  _493
REMARK  207  A    between atoms: _493  and  _494
REMARK  208  A    between atoms: _493  and  _496
REMARK  209  A    between atoms: _496  and  _497
REMARK  210  A    between atoms: _500  and  _502
REMARK  211  A    between atoms: _502  and  _503
REMARK  212  A    between atoms: _502  and  _505
REMARK  213  A    between atoms: _505  and  _506
REMARK  214  A    between atoms: _506  and  _507
REMARK  215  A    between atoms: _509  and  _511
REMARK  216  A    between atoms: _511  and  _512
REMARK  217  A    between atoms: _511  and  _514
REMARK  218  A    between atoms: _514  and  _515
REMARK  219  A    between atoms: _520  and  _521
REMARK  220  A    between atoms: _523  and  _525
REMARK  221  A    between atoms: _525  and  _526
REMARK  222  A    between atoms: _525  and  _528
REMARK  223  A    between atoms: _528  and  _529
REMARK  224  A    between atoms: _529  and  _530
REMARK  225  A    between atoms: _530  and  _531
REMARK  226  A    between atoms: _540  and  _542
REMARK  227  A    between atoms: _542  and  _543
REMARK  228  A    between atoms: _542  and  _545
REMARK  229  A    between atoms: _545  and  _546
REMARK  230  A    between atoms: _548  and  _550
REMARK  231  A    between atoms: _550  and  _551
REMARK  232  A    between atoms: _550  and  _553
REMARK  233  A    between atoms: _553  and  _554
REMARK  234  A    between atoms: _559  and  _560
REMARK  235  A    between atoms: _562  and  _564
REMARK  236  A    between atoms: _564  and  _565
REMARK  237  A    between atoms: _568  and  _570
REMARK  238  A    between atoms: _570  and  _571
REMARK  239  A    between atoms: _574  and  _576
REMARK  240  A    between atoms: _576  and  _577
REMARK  241  A    between atoms: _576  and  _579
REMARK  242  A    between atoms: _579  and  _580
REMARK  243  A    between atoms: _580  and  _581
REMARK  244  A    between atoms: _581  and  _582
REMARK  245  A    between atoms: _591  and  _593
REMARK  246  A    between atoms: _593  and  _594
REMARK  247  A    between atoms: _593  and  _596
REMARK  248  A    between atoms: _599  and  _601
REMARK  249  A    between atoms: _601  and  _602
REMARK  250  A    between atoms: _604  and  _606
REMARK  251  A    between atoms: _606  and  _607
REMARK  252  A    between atoms: _606  and  _609
REMARK  253  A    between atoms: _609  and  _610
REMARK  254  A    between atoms: _613  and  _615
REMARK  255  A    between atoms: _615  and  _616
REMARK  256  A    between atoms: _619  and  _621
REMARK  257  A    between atoms: _621  and  _622
REMARK  258  A    between atoms: _621  and  _624
REMARK  259  A    between atoms: _624  and  _625
REMARK  260  A    between atoms: _628  and  _630
REMARK  261  A    between atoms: _630  and  _631
REMARK  262  A    between atoms: _630  and  _633
REMARK  263  A    between atoms: _633  and  _634
REMARK  264  A    between atoms: _639  and  _640
REMARK  265  A    between atoms: _642  and  _644
REMARK  266  A    between atoms: _644  and  _645
REMARK  267  A    between atoms: _644  and  _647
REMARK  268  A    between atoms: _647  and  _648
REMARK  269  A    between atoms: _648  and  _649
REMARK  270  A    between atoms: _651  and  _653
REMARK  271  A    between atoms: _653  and  _654
REMARK  272  A    between atoms: _653  and  _656
REMARK  273  A    between atoms: _656  and  _657
REMARK  274  A    between atoms: _657  and  _658
REMARK  275  A    between atoms: _661  and  _663
REMARK  276  A    between atoms: _663  and  _664
REMARK  277  A    between atoms: _663  and  _666
REMARK  278  A    between atoms: _666  and  _667
REMARK  279  A    between atoms: _673  and  _675
REMARK  280  A    between atoms: _675  and  _676
REMARK  281  A    between atoms: _675  and  _678
REMARK  282  A    between atoms: _678  and  _679
REMARK  283  A    between atoms: _684  and  _686
REMARK  284  A    between atoms: _686  and  _687
REMARK  285  A    between atoms: _686  and  _689
REMARK  286  A    between atoms: _689  and  _690
REMARK  287  A    between atoms: _700  and  _702
REMARK  288  A    between atoms: _702  and  _703
REMARK  289  A    between atoms: _702  and  _705
REMARK  290  A    between atoms: _708  and  _710
REMARK  291  A    between atoms: _710  and  _711
REMARK  292  A    between atoms: _710  and  _713
REMARK  293  A    between atoms: _713  and  _714
REMARK  294  A    between atoms: _717  and  _719
REMARK  295  A    between atoms: _719  and  _720
REMARK  296  A    between atoms: _719  and  _722
REMARK  297  A    between atoms: _722  and  _723
REMARK  298  A    between atoms: _723  and  _724
REMARK  299  A    between atoms: _726  and  _728
REMARK  300  A    between atoms: _728  and  _729
REMARK  301  A    between atoms: _728  and  _731
REMARK  302  A    between atoms: _731  and  _732
REMARK  303  A    between atoms: _735  and  _737
REMARK  304  A    between atoms: _737  and  _738
REMARK  305  A    between atoms: _737  and  _740
REMARK  306  A    between atoms: _740  and  _741
REMARK  307  A    between atoms: _744  and  _746
REMARK  308  A    between atoms: _746  and  _747
REMARK  309  A    between atoms: _746  and  _749
REMARK  310  A    between atoms: _749  and  _750
REMARK  311  A    between atoms: _753  and  _755
REMARK  312  A    between atoms: _755  and  _756
REMARK  313  A    between atoms: _755  and  _758
REMARK  314  A    between atoms: _758  and  _759
REMARK  315  A    between atoms: _762  and  _764
REMARK  316  A    between atoms: _764  and  _765
REMARK  317  A    between atoms: _767  and  _769
REMARK  318  A    between atoms: _769  and  _770
REMARK  319  A    between atoms: _769  and  _772
REMARK  320  A    between atoms: _772  and  _773
REMARK  321  A    between atoms: _775  and  _777
REMARK  322  A    between atoms: _777  and  _778
REMARK  323  A    between atoms: _777  and  _780
REMARK  324  A    between atoms: _780  and  _781
REMARK  325  A    between atoms: _791  and  _793
REMARK  326  A    between atoms: _793  and  _794
REMARK  327  A    between atoms: _793  and  _796
REMARK  328  A    between atoms: _796  and  _797
REMARK  329  A    between atoms: _799  and  _801
REMARK  330  A    between atoms: _801  and  _802
REMARK  331  A    between atoms: _801  and  _804
REMARK  332  A    between atoms: _804  and  _805
REMARK  333  A    between atoms: _808  and  _810
REMARK  334  A    between atoms: _810  and  _811
REMARK  335  A    between atoms: _814  and  _816
REMARK  336  A    between atoms: _816  and  _817
REMARK  337  A    between atoms: _816  and  _819
REMARK  338  A    between atoms: _819  and  _820
REMARK  339  A    between atoms: _822  and  _824
REMARK  340  A    between atoms: _824  and  _825
REMARK  341  A    between atoms: _824  and  _827
REMARK  342  A    between atoms: _827  and  _828
REMARK  343  A    between atoms: _828  and  _829
REMARK  344  A    between atoms: _832  and  _834
REMARK  345  A    between atoms: _834  and  _835
REMARK  346  A    between atoms: _834  and  _837
REMARK  347  A    between atoms: _837  and  _838
REMARK  348  A    between atoms: _840  and  _842
REMARK  349  A    between atoms: _842  and  _843
REMARK  350  A    between atoms: _842  and  _845
REMARK  351  A    between atoms: _845  and  _846
REMARK  352  A    between atoms: _846  and  _847
REMARK  353  A    between atoms: _852  and  _854
REMARK  354  A    between atoms: _854  and  _855
REMARK  355  A    between atoms: _854  and  _857
REMARK  356  A    between atoms: _857  and  _858
REMARK  357  A    between atoms: _858  and  _859
REMARK  358  A    between atoms: _864  and  _866
REMARK  359  A    between atoms: _866  and  _867
REMARK  360  A    between atoms: _866  and  _869
REMARK  361  A    between atoms: _869  and  _870
REMARK  362  A    between atoms: _873  and  _875
REMARK  363  A    between atoms: _875  and  _876
REMARK  364  A    between atoms: _875  and  _878
REMARK  365  A    between atoms: _878  and  _879
REMARK  366  A    between atoms: _882  and  _884
REMARK  367  A    between atoms: _884  and  _885
REMARK  368  A    between atoms: _884  and  _887
REMARK  369  A    between atoms: _887  and  _888
REMARK  370  A    between atoms: _895  and  _896
REMARK  371  A    between atoms: _901  and  _903
REMARK  372  A    between atoms: _903  and  _904
REMARK  373  A    between atoms: _903  and  _906
REMARK  374  A    between atoms: _906  and  _907
REMARK  375  A    between atoms: _912  and  _913
REMARK  376  A    between atoms: _915  and  _917
REMARK  377  A    between atoms: _917  and  _918
REMARK  378  A    between atoms: _917  and  _920
REMARK  379  A    between atoms: _920  and  _921
REMARK  380  A    between atoms: _926  and  _928
REMARK  381  A    between atoms: _928  and  _929
REMARK  382  A    between atoms: _928  and  _931
REMARK  383  A    between atoms: _931  and  _932
REMARK  384  A    between atoms: _938  and  _940
REMARK  385  A    between atoms: _940  and  _941
REMARK  386  A    between atoms: _940  and  _943
REMARK  387  A    between atoms: _943  and  _944
REMARK  388  A    between atoms: _947  and  _949
REMARK  389  A    between atoms: _949  and  _950
REMARK  390  A    between atoms: _949  and  _952
REMARK  391  A    between atoms: _952  and  _953
REMARK  392  A    between atoms: _958  and  _960
REMARK  393  A    between atoms: _960  and  _961
REMARK  394  A    between atoms: _960  and  _963
REMARK  395  A    between atoms: _963  and  _964
REMARK  396  A    between atoms: _970  and  _972
REMARK  397  A    between atoms: _972  and  _973
REMARK  398  A    between atoms: _972  and  _975
REMARK  399  A    between atoms: _975  and  _976
REMARK  400  A    between atoms: _976  and  _977
REMARK  401  A    between atoms: _979  and  _981
REMARK  402  A    between atoms: _981  and  _982
REMARK  403  A    between atoms: _981  and  _984
REMARK  404  A    between atoms: _984  and  _985
REMARK  405  A    between atoms: _988  and  _990
REMARK  406  A    between atoms: _990  and  _991
REMARK  407  A    between atoms: _990  and  _993
REMARK  408  A    between atoms: _993  and  _994
REMARK  409  A    between atoms: _999  and  _1001
REMARK  410  A    between atoms: _1001  and  _1002
REMARK  411  A    between atoms: _1001  and  _1004
REMARK  412  A    between atoms: _1004  and  _1005
REMARK  413  A    between atoms: _1010  and  _1011
REMARK                            x       y       z     vdW  Elec       q    Type
REMARK                         _______ _______ _______ _____ _____    ______ ____
ROOT
ATOM      1  O   HOH     1      -3.633 -20.901  18.665  0.00  0.00    +0.000 OA
ENDROOT
TORSDOF 0
REMARK  Name = ../refined-set-2016/3drg/3drg_pocket.pdb
REMARK  413 active torsions:
REMARK  status: ('A' for Active; 'I' for Inactive)
REMARK    1  A    between atoms: _1  and  _3
REMARK    2  A    between atoms: _3  and  _4
REMARK    3  A    between atoms: _3  and  _6
REMARK    4  A    between atoms: _6  and  _7
REMARK    5  A    between atoms: _12  and  _13
REMARK    6  A    between atoms: _15  and  _17
REMARK    7  A    between atoms: _17  and  _18
REMARK    8  A    between atoms: _17  and  _20
REMARK    9  A    between atoms: _20  and  _21
REMARK   10  A    between atoms: _21  and  _22
REMARK   11  A    between atoms: _27  and  _29
REMARK   12  A    between atoms: _29  and  _30
REMARK   13  A    between atoms: _29  and  _32
REMARK   14  A    between atoms: _32  and  _33
REMARK   15  A    between atoms: _35  and  _37
REMARK   16  A    between atoms: _37  and  _38
REMARK   17  A    between atoms: _37  and  _40
REMARK   18  A    between atoms: _40  and  _41
REMARK   19  A    between atoms: _44  and  _46
REMARK   20  A    between atoms: _46  and  _47
REMARK   21  A    between atoms: _46  and  _49
REMARK   22  A    between atoms: _49  and  _50
REMARK   23  A    between atoms: _52  and  _54
REMARK   24  A    between atoms: _54  and  _55
REMARK   25  A    between atoms: _54  and  _57
REMARK   26  A    between atoms: _57  and  _58
REMARK   27  A    between atoms: _61  and  _63
REMARK   28  A    between atoms: _63  and  _64
REMARK   29  A    between atoms: _63  and  _66
REMARK   30  A    between atoms: _66  and  _67
REMARK   31  A    between atoms: _69  and  _71
REMARK   32  A    between atoms: _71  and  _72
REMARK   33  A    between atoms: _74  and  _76
REMARK   34  A    between atoms: _76  and  _77
REMARK   35  A    between atoms: _76  and  _79
REMARK   36  A    between atoms: _79  and  _80
REMARK   37  A    between atoms: _82  and  _84
REMARK   38  A    between atoms: _84  and  _85
REMARK   39  A    between atoms: _84  and  _87
REMARK   40  A    between atoms: _87  and  _88
REMARK   41  A    between atoms: _93  and  _95
REMARK   42  A    between atoms: _95  and  _96
REMARK   43  A    between atoms: _95  and  _98
REMARK   44  A    between atoms: _98  and  _99
REMARK   45  A    between atoms: _102  and  _104
REMARK   46  A    between atoms: _104  and  _105
REMARK   47  A    between atoms: _108  and  _110
REMARK   48  A    between atoms: _110  and  _111
REMARK   49  A    between atoms: _110  and  _113
REMARK   50  A    between atoms: _113  and  _114
REMARK   51  A    between atoms: _117  and  _119
REMARK   52  A    between atoms: _119  and  _120
REMARK   53  A    between atoms: _119  and  _122
REMARK   54  A    between atoms: _122  and  _123
REMARK   55  A    between atoms: _129  and  _131
REMARK   56  A    between atoms: _131  and  _132
REMARK   57  A    between atoms: _135  and  _137
REMARK   58  A    between atoms: _137  and  _138
REMARK   59  A    between atoms: _137  and  _140
REMARK   60  A    between atoms: _140  and  _141
REMARK   61  A    between atoms: _144  and  _146
REMARK   62  A    between atoms: _146  and  _147
REMARK   63  A    between atoms: _146  and  _149
REMARK   64  A    between atoms: _149  and  _150
REMARK   65  A    between atoms: _152  and  _154
REMARK   66  A    between atoms: _154  and  _155
REMARK   67  A    between atoms: _157  and  _159
REMARK   68  A    between atoms: _159  and  _160
REMARK   69  A    between atoms: _162  and  _164
REMARK   70  A    between atoms: _164  and  _165
REMARK   71  A    between atoms: _164  and  _167
REMARK   72  A    between atoms: _167  and  _168
REMARK   73  A    between atoms: _168  and  _169
REMARK   74  A    between atoms: _174  and  _176
REMARK   75  A    between atoms: _176  and  _177
REMARK   76  A    between atoms: _176  and  _179
REMARK   77  A    between atoms: _179  and  _180
REMARK   78  A    between atoms: _183  and  _185
REMARK   79  A    between atoms: _185  and  _186
REMARK   80  A    between atoms: _188  and  _190
REMARK   81  A    between atoms: _190  and  _191
REMARK   82  A    between atoms: _190  and  _193
REMARK   83  A    between atoms: _193  and  _194
REMARK   84  A    between atoms: _197  and  _199
REMARK   85  A    between atoms: _199  and  _200
REMARK   86  A    between atoms: _199  and  _202
REMARK   87  A    between atoms: _202  and  _203
REMARK   88  A    between atoms: _209  and  _211
REMARK   89  A    between atoms: _211  and  _212
REMARK   90  A    between atoms: _211  and  _214
REMARK   91  A    between atoms: _214  and  _215
REMARK   92  A    between atoms: _218  and  _220
REMARK   93  A    between atoms: _220  and  _221
REMARK   94  A    between atoms: _220  and  _223
REMARK   95  A    between atoms: _223  and  _224
REMARK   96  A    between atoms: _230  and  _232
REMARK   97  A    between atoms: _232  and  _233
REMARK   98  A    between atoms: _232  and  _235
REMARK   99  A    between atoms: _235  and  _236
REMARK  100  A    between atoms: _242  and  _244
REMARK  101  A    between atoms: _244  and  _245
REMARK  102  A    between atoms: _244  and  _247
REMARK  103  A    between atoms: _247  and  _248
REMARK  104  A    between atoms: _251  and  _253
REMARK  105  A    between atoms: _253  and  _254
REMARK  106  A    between atoms: _253  and  _256
REMARK  107  A    between atoms: _256  and  _257
REMARK  108  A    between atoms: _260  and  _262
REMARK  109  A    between atoms: _262  and  _263
REMARK  110  A    between atoms: _262  and  _265
REMARK  111  A    between atoms: _265  and  _266
REMARK  112  A    between atoms: _266  and  _267
REMARK  113  A    between atoms: _267  and  _268
REMARK  114  A    between atoms: _277  and  _279
REMARK  115  A    between atoms: _279  and  _280
REMARK  116  A    between atoms: _279  and  _282
REMARK  117  A    between atoms: _282  and  _283
REMARK  118  A    between atoms: _286  and  _288
REMARK  119  A    between atoms: _288  and  _289
REMARK  120  A    between atoms: _288  and  _291
REMARK  121  A    between atoms: _291  and  _292
REMARK  122  A    between atoms: _292  and  _293
REMARK  123  A    between atoms: _298  and  _300
REMARK  124  A    between atoms: _300  and  _301
REMARK  125  A    between atoms: _300  and  _303
REMARK  126  A    between atoms: _303  and  _304
REMARK  127  A    between atoms: _306  and  _308
REMARK  128  A    between atoms: _308  and  _309
REMARK  129  A    between atoms: _311  and  _313
REMARK  130  A    between atoms: _313  and  _314
REMARK  131  A    between atoms: _313  and  _316
REMARK  132  A    between atoms: _316  and  _317
REMARK  133  A    between atoms: _322  and  _324
REMARK  134  A    between atoms: _324  and  _325
REMARK  135  A    between atoms: _327  and  _329
REMARK  136  A    between atoms: _329  and  _330
REMARK  137  A    between atoms: _329  and  _332
REMARK  138  A    between atoms: _332  and  _333
REMARK  139  A    between atoms: _339  and  _341
REMARK  140  A    between atoms: _341  and  _342
REMARK  141  A    between atoms: _341  and  _344
REMARK  142  A    between atoms: _344  and  _345
REMARK  143  A    between atoms: _348  and  _350
REMARK  144  A    between atoms: _350  and  _351
REMARK  145  A    between atoms: _350  and  _353
REMARK  146  A    between atoms: _353  and  _354
REMARK  147  A    between atoms: _354  and  _355
REMARK  148  A    between atoms: _358  and  _360
REMARK  149  A    between atoms: _360  and  _361
REMARK  150  A    between atoms: _360  and  _363
REMARK  151  A    between atoms: _363  and  _364
REMARK  152  A    between atoms: _367  and  _369
REMARK  153  A    between atoms: _369  and  _370
REMARK  154  A    between atoms: _369  and  _372
REMARK  155  A    between atoms: _375  and  _377
REMARK  156  A    between atoms: _377  and  _378
REMARK  157  A    between atoms: _377  and  _380
REMARK  158  A    between atoms: _380  and  _381
REMARK  159  A    between atoms: _384  and  _386
REMARK  160  A    between atoms: _386  and  _387
REMARK  161  A    between atoms: _386  and  _389
REMARK  162  A    between atoms: _389  and  _390
REMARK  163  A    between atoms: _395  and  _397
REMARK  164  A    between atoms: _397  and  _398
REMARK  165  A    between atoms: _400  and  _402
REMARK  166  A    between atoms: _402  and  _403
REMARK  167  A    between atoms: _402  and  _405
REMARK  168  A    between atoms: _405  and  _406
REMARK  169  A    between atoms: _406  and  _407
REMARK  170  A    between atoms: _409  and  _411
REMARK  171  A    between atoms: _411  and  _412
REMARK  172  A    between atoms: _411  and  _414
REMARK  173  A    between atoms: _417  and  _419
REMARK  174  A    between atoms: _419  and  _420
REMARK  175  A    between atoms: _419  and  _422
REMARK  176  A    between atoms: _422  and  _423
REMARK  177  A    between atoms: _425  and  _427
REMARK  178  A    between atoms: _427  and  _428
REMARK  179  A    between atoms: _427  and  _430
REMARK  180  A    between atoms: _430  and  _431
REMARK  181  A    between atoms: _433  and  _435
REMARK  182  A    between atoms: _435  and  _436
REMARK  183  A    between atoms: _435  and  _438
REMARK  184  A    between atoms: _438  and  _439
REMARK  185  A    between atoms: _439  and  _440
REMARK  186  A    between atoms: _445  and  _447
REMARK  187  A    between atoms: _447  and  _448
REMARK  188  A    between atoms: _451  and  _453
REMARK  189  A    between atoms: _453  and  _454
REMARK  190  A    between atoms: _453  and  _456
REMARK  191  A    between atoms: _456  and  _457
REMARK  192  A    between atoms: _457  and  _458
REMARK  193  A    between atoms: _460  and  _462
REMARK  194  A    between atoms: _462  and  _463
REMARK  195  A    between atoms: _462  and  _465
REMARK  196  A    between atoms: _465  and  _466
REMARK  197  A    between atoms: _471  and  _472
REMARK  198  A    between atoms: _474  and  _476
REMARK  199  A    between atoms: _476  and  _477
REMARK  200  A    between atoms: _476  and  _479
REMARK  201  A    between atoms: _479  and  _480
REMARK  202  A    between atoms: _483  and  _485
REMARK  203  A    between atoms: _485  and  _486
REMARK  204  A    between atoms: _485  and  _488
REMARK  205  A    between atoms: _488  and  _489
REMARK  206  A    between atoms: _491  and  _493
REMARK  207  A    between atoms: _493  and  _494
REMARK  208  A    between atoms: _493  and  _496
REMARK  209  A    between atoms: _496  and  _497
REMARK  210  A    between atoms: _500  and  _502
REMARK  211  A    between atoms: _502  and  _503
REMARK  212  A    between atoms: _502  and  _505
REMARK  213  A    between atoms: _505  and  _506
REMARK  214  A    between atoms: _506  and  _507
REMARK  215  A    between atoms: _509  and  _511
REMARK  216  A    between atoms: _511  and  _512
REMARK  217  A    between atoms: _511  and  _514
REMARK  218  A    between atoms: _514  and  _515
REMARK  219  A    between atoms: _520  and  _521
REMARK  220  A    between atoms: _523  and  _525
REMARK  221  A    between atoms: _525  and  _526
REMARK  222  A    between atoms: _525  and  _528
REMARK  223  A    between atoms: _528  and  _529
REMARK  224  A    between atoms: _529  and  _530
REMARK  225  A    between atoms: _530  and  _531
REMARK  226  A    between atoms: _540  and  _542
REMARK  227  A    between atoms: _542  and  _543
REMARK  228  A    between atoms: _542  and  _545
REMARK  229  A    between atoms: _545  and  _546
REMARK  230  A    between atoms: _548  and  _550
REMARK  231  A    between atoms: _550  and  _551
REMARK  232  A    between atoms: _550  and  _553
REMARK  233  A    between atoms: _553  and  _554
REMARK  234  A    between atoms: _559  and  _560
REMARK  235  A    between atoms: _562  and  _564
REMARK  236  A    between atoms: _564  and  _565
REMARK  237  A    between atoms: _568  and  _570
REMARK  238  A    between atoms: _570  and  _571
REMARK  239  A    between atoms: _574  and  _576
REMARK  240  A    between atoms: _576  and  _577
REMARK  241  A    between atoms: _576  and  _579
REMARK  242  A    between atoms: _579  and  _580
REMARK  243  A    between atoms: _580  and  _581
REMARK  244  A    between atoms: _581  and  _582
REMARK  245  A    between atoms: _591  and  _593
REMARK  246  A    between atoms: _593  and  _594
REMARK  247  A    between atoms: _593  and  _596
REMARK  248  A    between atoms: _599  and  _601
REMARK  249  A    between atoms: _601  and  _602
REMARK  250  A    between atoms: _604  and  _606
REMARK  251  A    between atoms: _606  and  _607
REMARK  252  A    between atoms: _606  and  _609
REMARK  253  A    between atoms: _609  and  _610
REMARK  254  A    between atoms: _613  and  _615
REMARK  255  A    between atoms: _615  and  _616
REMARK  256  A    between atoms: _619  and  _621
REMARK  257  A    between atoms: _621  and  _622
REMARK  258  A    between atoms: _621  and  _624
REMARK  259  A    between atoms: _624  and  _625
REMARK  260  A    between atoms: _628  and  _630
REMARK  261  A    between atoms: _630  and  _631
REMARK  262  A    between atoms: _630  and  _633
REMARK  263  A    between atoms: _633  and  _634
REMARK  264  A    between atoms: _639  and  _640
REMARK  265  A    between atoms: _642  and  _644
REMARK  266  A    between atoms: _644  and  _645
REMARK  267  A    between atoms: _644  and  _647
REMARK  268  A    between atoms: _647  and  _648
REMARK  269  A    between atoms: _648  and  _649
REMARK  270  A    between atoms: _651  and  _653
REMARK  271  A    between atoms: _653  and  _654
REMARK  272  A    between atoms: _653  and  _656
REMARK  273  A    between atoms: _656  and  _657
REMARK  274  A    between atoms: _657  and  _658
REMARK  275  A    between atoms: _661  and  _663
REMARK  276  A    between atoms: _663  and  _664
REMARK  277  A    between atoms: _663  and  _666
REMARK  278  A    between atoms: _666  and  _667
REMARK  279  A    between atoms: _673  and  _675
REMARK  280  A    between atoms: _675  and  _676
REMARK  281  A    between atoms: _675  and  _678
REMARK  282  A    between atoms: _678  and  _679
REMARK  283  A    between atoms: _684  and  _686
REMARK  284  A    between atoms: _686  and  _687
REMARK  285  A    between atoms: _686  and  _689
REMARK  286  A    between atoms: _689  and  _690
REMARK  287  A    between atoms: _700  and  _702
REMARK  288  A    between atoms: _702  and  _703
REMARK  289  A    between atoms: _702  and  _705
REMARK  290  A    between atoms: _708  and  _710
REMARK  291  A    between atoms: _710  and  _711
REMARK  292  A    between atoms: _710  and  _713
REMARK  293  A    between atoms: _713  and  _714
REMARK  294  A    between atoms: _717  and  _719
REMARK  295  A    between atoms: _719  and  _720
REMARK  296  A    between atoms: _719  and  _722
REMARK  297  A    between atoms: _722  and  _723
REMARK  298  A    between atoms: _723  and  _724
REMARK  299  A    between atoms: _726  and  _728
REMARK  300  A    between atoms: _728  and  _729
REMARK  301  A    between atoms: _728  and  _731
REMARK  302  A    between atoms: _731  and  _732
REMARK  303  A    between atoms: _735  and  _737
REMARK  304  A    between atoms: _737  and  _738
REMARK  305  A    between atoms: _737  and  _740
REMARK  306  A    between atoms: _740  and  _741
REMARK  307  A    between atoms: _744  and  _746
REMARK  308  A    between atoms: _746  and  _747
REMARK  309  A    between atoms: _746  and  _749
REMARK  310  A    between atoms: _749  and  _750
REMARK  311  A    between atoms: _753  and  _755
REMARK  312  A    between atoms: _755  and  _756
REMARK  313  A    between atoms: _755  and  _758
REMARK  314  A    between atoms: _758  and  _759
REMARK  315  A    between atoms: _762  and  _764
REMARK  316  A    between atoms: _764  and  _765
REMARK  317  A    between atoms: _767  and  _769
REMARK  318  A    between atoms: _769  and  _770
REMARK  319  A    between atoms: _769  and  _772
REMARK  320  A    between atoms: _772  and  _773
REMARK  321  A    between atoms: _775  and  _777
REMARK  322  A    between atoms: _777  and  _778
REMARK  323  A    between atoms: _777  and  _780
REMARK  324  A    between atoms: _780  and  _781
REMARK  325  A    between atoms: _791  and  _793
REMARK  326  A    between atoms: _793  and  _794
REMARK  327  A    between atoms: _793  and  _796
REMARK  328  A    between atoms: _796  and  _797
REMARK  329  A    between atoms: _799  and  _801
REMARK  330  A    between atoms: _801  and  _802
REMARK  331  A    between atoms: _801  and  _804
REMARK  332  A    between atoms: _804  and  _805
REMARK  333  A    between atoms: _808  and  _810
REMARK  334  A    between atoms: _810  and  _811
REMARK  335  A    between atoms: _814  and  _816
REMARK  336  A    between atoms: _816  and  _817
REMARK  337  A    between atoms: _816  and  _819
REMARK  338  A    between atoms: _819  and  _820
REMARK  339  A    between atoms: _822  and  _824
REMARK  340  A    between atoms: _824  and  _825
REMARK  341  A    between atoms: _824  and  _827
REMARK  342  A    between atoms: _827  and  _828
REMARK  343  A    between atoms: _828  and  _829
REMARK  344  A    between atoms: _832  and  _834
REMARK  345  A    between atoms: _834  and  _835
REMARK  346  A    between atoms: _834  and  _837
REMARK  347  A    between atoms: _837  and  _838
REMARK  348  A    between atoms: _840  and  _842
REMARK  349  A    between atoms: _842  and  _843
REMARK  350  A    between atoms: _842  and  _845
REMARK  351  A    between atoms: _845  and  _846
REMARK  352  A    between atoms: _846  and  _847
REMARK  353  A    between atoms: _852  and  _854
REMARK  354  A    between atoms: _854  and  _855
REMARK  355  A    between atoms: _854  and  _857
REMARK  356  A    between atoms: _857  and  _858
REMARK  357  A    between atoms: _858  and  _859
REMARK  358  A    between atoms: _864  and  _866
REMARK  359  A    between atoms: _866  and  _867
REMARK  360  A    between atoms: _866  and  _869
REMARK  361  A    between atoms: _869  and  _870
REMARK  362  A    between atoms: _873  and  _875
REMARK  363  A    between atoms: _875  and  _876
REMARK  364  A    between atoms: _875  and  _878
REMARK  365  A    between atoms: _878  and  _879
REMARK  366  A    between atoms: _882  and  _884
REMARK  367  A    between atoms: _884  and  _885
REMARK  368  A    between atoms: _884  and  _887
REMARK  369  A    between atoms: _887  and  _888
REMARK  370  A    between atoms: _895  and  _896
REMARK  371  A    between atoms: _901  and  _903
REMARK  372  A    between atoms: _903  and  _904
REMARK  373  A    between atoms: _903  and  _906
REMARK  374  A    between atoms: _906  and  _907
REMARK  375  A    between atoms: _912  and  _913
REMARK  376  A    between atoms: _915  and  _917
REMARK  377  A    between atoms: _917  and  _918
REMARK  378  A    between atoms: _917  and  _920
REMARK  379  A    between atoms: _920  and  _921
REMARK  380  A    between atoms: _926  and  _928
REMARK  381  A    between atoms: _928  and  _929
REMARK  382  A    between atoms: _928  and  _931
REMARK  383  A    between atoms: _931  and  _932
REMARK  384  A    between atoms: _938  and  _940
REMARK  385  A    between atoms: _940  and  _941
REMARK  386  A    between atoms: _940  and  _943
REMARK  387  A    between atoms: _943  and  _944
REMARK  388  A    between atoms: _947  and  _949
REMARK  389  A    between atoms: _949  and  _950
REMARK  390  A    between atoms: _949  and  _952
REMARK  391  A    between atoms: _952  and  _953
REMARK  392  A    between atoms: _958  and  _960
REMARK  393  A    between atoms: _960  and  _961
REMARK  394  A    between atoms: _960  and  _963
REMARK  395  A    between atoms: _963  and  _964
REMARK  396  A    between atoms: _970  and  _972
REMARK  397  A    between atoms: _972  and  _973
REMARK  398  A    between atoms: _972  and  _975
REMARK  399  A    between atoms: _975  and  _976
REMARK  400  A    between atoms: _976  and  _977
REMARK  401  A    between atoms: _979  and  _981
REMARK  402  A    between atoms: _981  and  _982
REMARK  403  A    between atoms: _981  and  _984
REMARK  404  A    between atoms: _984  and  _985
REMARK  405  A    between atoms: _988  and  _990
REMARK  406  A    between atoms: _990  and  _991
REMARK  407  A    between atoms: _990  and  _993
REMARK  408  A    between atoms: _993  and  _994
REMARK  409  A    between atoms: _999  and  _1001
REMARK  410  A    between atoms: _1001  and  _1002
REMARK  411  A    between atoms: _1001  and  _1004
REMARK  412  A    between atoms: _1004  and  _1005
REMARK  413  A    between atoms: _1010  and  _1011
REMARK                            x       y       z     vdW  Elec       q    Type
REMARK                         _______ _______ _______ _____ _____    ______ ____
ROOT
ATOM      1  O   HOH     1     -15.921 -15.138  24.752  0.00  0.00    +0.000 OA
ENDROOT
TORSDOF 0
REMARK  Name = ../refined-set-2016/3drg/3drg_pocket.pdb
REMARK  413 active torsions:
REMARK  status: ('A' for Active; 'I' for Inactive)
REMARK    1  A    between atoms: _1  and  _3
REMARK    2  A    between atoms: _3  and  _4
REMARK    3  A    between atoms: _3  and  _6
REMARK    4  A    between atoms: _6  and  _7
REMARK    5  A    between atoms: _12  and  _13
REMARK    6  A    between atoms: _15  and  _17
REMARK    7  A    between atoms: _17  and  _18
REMARK    8  A    between atoms: _17  and  _20
REMARK    9  A    between atoms: _20  and  _21
REMARK   10  A    between atoms: _21  and  _22
REMARK   11  A    between atoms: _27  and  _29
REMARK   12  A    between atoms: _29  and  _30
REMARK   13  A    between atoms: _29  and  _32
REMARK   14  A    between atoms: _32  and  _33
REMARK   15  A    between atoms: _35  and  _37
REMARK   16  A    between atoms: _37  and  _38
REMARK   17  A    between atoms: _37  and  _40
REMARK   18  A    between atoms: _40  and  _41
REMARK   19  A    between atoms: _44  and  _46
REMARK   20  A    between atoms: _46  and  _47
REMARK   21  A    between atoms: _46  and  _49
REMARK   22  A    between atoms: _49  and  _50
REMARK   23  A    between atoms: _52  and  _54
REMARK   24  A    between atoms: _54  and  _55
REMARK   25  A    between atoms: _54  and  _57
REMARK   26  A    between atoms: _57  and  _58
REMARK   27  A    between atoms: _61  and  _63
REMARK   28  A    between atoms: _63  and  _64
REMARK   29  A    between atoms: _63  and  _66
REMARK   30  A    between atoms: _66  and  _67
REMARK   31  A    between atoms: _69  and  _71
REMARK   32  A    between atoms: _71  and  _72
REMARK   33  A    between atoms: _74  and  _76
REMARK   34  A    between atoms: _76  and  _77
REMARK   35  A    between atoms: _76  and  _79
REMARK   36  A    between atoms: _79  and  _80
REMARK   37  A    between atoms: _82  and  _84
REMARK   38  A    between atoms: _84  and  _85
REMARK   39  A    between atoms: _84  and  _87
REMARK   40  A    between atoms: _87  and  _88
REMARK   41  A    between atoms: _93  and  _95
REMARK   42  A    between atoms: _95  and  _96
REMARK   43  A    between atoms: _95  and  _98
REMARK   44  A    between atoms: _98  and  _99
REMARK   45  A    between atoms: _102  and  _104
REMARK   46  A    between atoms: _104  and  _105
REMARK   47  A    between atoms: _108  and  _110
REMARK   48  A    between atoms: _110  and  _111
REMARK   49  A    between atoms: _110  and  _113
REMARK   50  A    between atoms: _113  and  _114
REMARK   51  A    between atoms: _117  and  _119
REMARK   52  A    between atoms: _119  and  _120
REMARK   53  A    between atoms: _119  and  _122
REMARK   54  A    between atoms: _122  and  _123
REMARK   55  A    between atoms: _129  and  _131
REMARK   56  A    between atoms: _131  and  _132
REMARK   57  A    between atoms: _135  and  _137
REMARK   58  A    between atoms: _137  and  _138
REMARK   59  A    between atoms: _137  and  _140
REMARK   60  A    between atoms: _140  and  _141
REMARK   61  A    between atoms: _144  and  _146
REMARK   62  A    between atoms: _146  and  _147
REMARK   63  A    between atoms: _146  and  _149
REMARK   64  A    between atoms: _149  and  _150
REMARK   65  A    between atoms: _152  and  _154
REMARK   66  A    between atoms: _154  and  _155
REMARK   67  A    between atoms: _157  and  _159
REMARK   68  A    between atoms: _159  and  _160
REMARK   69  A    between atoms: _162  and  _164
REMARK   70  A    between atoms: _164  and  _165
REMARK   71  A    between atoms: _164  and  _167
REMARK   72  A    between atoms: _167  and  _168
REMARK   73  A    between atoms: _168  and  _169
REMARK   74  A    between atoms: _174  and  _176
REMARK   75  A    between atoms: _176  and  _177
REMARK   76  A    between atoms: _176  and  _179
REMARK   77  A    between atoms: _179  and  _180
REMARK   78  A    between atoms: _183  and  _185
REMARK   79  A    between atoms: _185  and  _186
REMARK   80  A    between atoms: _188  and  _190
REMARK   81  A    between atoms: _190  and  _191
REMARK   82  A    between atoms: _190  and  _193
REMARK   83  A    between atoms: _193  and  _194
REMARK   84  A    between atoms: _197  and  _199
REMARK   85  A    between atoms: _199  and  _200
REMARK   86  A    between atoms: _199  and  _202
REMARK   87  A    between atoms: _202  and  _203
REMARK   88  A    between atoms: _209  and  _211
REMARK   89  A    between atoms: _211  and  _212
REMARK   90  A    between atoms: _211  and  _214
REMARK   91  A    between atoms: _214  and  _215
REMARK   92  A    between atoms: _218  and  _220
REMARK   93  A    between atoms: _220  and  _221
REMARK   94  A    between atoms: _220  and  _223
REMARK   95  A    between atoms: _223  and  _224
REMARK   96  A    between atoms: _230  and  _232
REMARK   97  A    between atoms: _232  and  _233
REMARK   98  A    between atoms: _232  and  _235
REMARK   99  A    between atoms: _235  and  _236
REMARK  100  A    between atoms: _242  and  _244
REMARK  101  A    between atoms: _244  and  _245
REMARK  102  A    between atoms: _244  and  _247
REMARK  103  A    between atoms: _247  and  _248
REMARK  104  A    between atoms: _251  and  _253
REMARK  105  A    between atoms: _253  and  _254
REMARK  106  A    between atoms: _253  and  _256
REMARK  107  A    between atoms: _256  and  _257
REMARK  108  A    between atoms: _260  and  _262
REMARK  109  A    between atoms: _262  and  _263
REMARK  110  A    between atoms: _262  and  _265
REMARK  111  A    between atoms: _265  and  _266
REMARK  112  A    between atoms: _266  and  _267
REMARK  113  A    between atoms: _267  and  _268
REMARK  114  A    between atoms: _277  and  _279
REMARK  115  A    between atoms: _279  and  _280
REMARK  116  A    between atoms: _279  and  _282
REMARK  117  A    between atoms: _282  and  _283
REMARK  118  A    between atoms: _286  and  _288
REMARK  119  A    between atoms: _288  and  _289
REMARK  120  A    between atoms: _288  and  _291
REMARK  121  A    between atoms: _291  and  _292
REMARK  122  A    between atoms: _292  and  _293
REMARK  123  A    between atoms: _298  and  _300
REMARK  124  A    between atoms: _300  and  _301
REMARK  125  A    between atoms: _300  and  _303
REMARK  126  A    between atoms: _303  and  _304
REMARK  127  A    between atoms: _306  and  _308
REMARK  128  A    between atoms: _308  and  _309
REMARK  129  A    between atoms: _311  and  _313
REMARK  130  A    between atoms: _313  and  _314
REMARK  131  A    between atoms: _313  and  _316
REMARK  132  A    between atoms: _316  and  _317
REMARK  133  A    between atoms: _322  and  _324
REMARK  134  A    between atoms: _324  and  _325
REMARK  135  A    between atoms: _327  and  _329
REMARK  136  A    between atoms: _329  and  _330
REMARK  137  A    between atoms: _329  and  _332
REMARK  138  A    between atoms: _332  and  _333
REMARK  139  A    between atoms: _339  and  _341
REMARK  140  A    between atoms: _341  and  _342
REMARK  141  A    between atoms: _341  and  _344
REMARK  142  A    between atoms: _344  and  _345
REMARK  143  A    between atoms: _348  and  _350
REMARK  144  A    between atoms: _350  and  _351
REMARK  145  A    between atoms: _350  and  _353
REMARK  146  A    between atoms: _353  and  _354
REMARK  147  A    between atoms: _354  and  _355
REMARK  148  A    between atoms: _358  and  _360
REMARK  149  A    between atoms: _360  and  _361
REMARK  150  A    between atoms: _360  and  _363
REMARK  151  A    between atoms: _363  and  _364
REMARK  152  A    between atoms: _367  and  _369
REMARK  153  A    between atoms: _369  and  _370
REMARK  154  A    between atoms: _369  and  _372
REMARK  155  A    between atoms: _375  and  _377
REMARK  156  A    between atoms: _377  and  _378
REMARK  157  A    between atoms: _377  and  _380
REMARK  158  A    between atoms: _380  and  _381
REMARK  159  A    between atoms: _384  and  _386
REMARK  160  A    between atoms: _386  and  _387
REMARK  161  A    between atoms: _386  and  _389
REMARK  162  A    between atoms: _389  and  _390
REMARK  163  A    between atoms: _395  and  _397
REMARK  164  A    between atoms: _397  and  _398
REMARK  165  A    between atoms: _400  and  _402
REMARK  166  A    between atoms: _402  and  _403
REMARK  167  A    between atoms: _402  and  _405
REMARK  168  A    between atoms: _405  and  _406
REMARK  169  A    between atoms: _406  and  _407
REMARK  170  A    between atoms: _409  and  _411
REMARK  171  A    between atoms: _411  and  _412
REMARK  172  A    between atoms: _411  and  _414
REMARK  173  A    between atoms: _417  and  _419
REMARK  174  A    between atoms: _419  and  _420
REMARK  175  A    between atoms: _419  and  _422
REMARK  176  A    between atoms: _422  and  _423
REMARK  177  A    between atoms: _425  and  _427
REMARK  178  A    between atoms: _427  and  _428
REMARK  179  A    between atoms: _427  and  _430
REMARK  180  A    between atoms: _430  and  _431
REMARK  181  A    between atoms: _433  and  _435
REMARK  182  A    between atoms: _435  and  _436
REMARK  183  A    between atoms: _435  and  _438
REMARK  184  A    between atoms: _438  and  _439
REMARK  185  A    between atoms: _439  and  _440
REMARK  186  A    between atoms: _445  and  _447
REMARK  187  A    between atoms: _447  and  _448
REMARK  188  A    between atoms: _451  and  _453
REMARK  189  A    between atoms: _453  and  _454
REMARK  190  A    between atoms: _453  and  _456
REMARK  191  A    between atoms: _456  and  _457
REMARK  192  A    between atoms: _457  and  _458
REMARK  193  A    between atoms: _460  and  _462
REMARK  194  A    between atoms: _462  and  _463
REMARK  195  A    between atoms: _462  and  _465
REMARK  196  A    between atoms: _465  and  _466
REMARK  197  A    between atoms: _471  and  _472
REMARK  198  A    between atoms: _474  and  _476
REMARK  199  A    between atoms: _476  and  _477
REMARK  200  A    between atoms: _476  and  _479
REMARK  201  A    between atoms: _479  and  _480
REMARK  202  A    between atoms: _483  and  _485
REMARK  203  A    between atoms: _485  and  _486
REMARK  204  A    between atoms: _485  and  _488
REMARK  205  A    between atoms: _488  and  _489
REMARK  206  A    between atoms: _491  and  _493
REMARK  207  A    between atoms: _493  and  _494
REMARK  208  A    between atoms: _493  and  _496
REMARK  209  A    between atoms: _496  and  _497
REMARK  210  A    between atoms: _500  and  _502
REMARK  211  A    between atoms: _502  and  _503
REMARK  212  A    between atoms: _502  and  _505
REMARK  213  A    between atoms: _505  and  _506
REMARK  214  A    between atoms: _506  and  _507
REMARK  215  A    between atoms: _509  and  _511
REMARK  216  A    between atoms: _511  and  _512
REMARK  217  A    between atoms: _511  and  _514
REMARK  218  A    between atoms: _514  and  _515
REMARK  219  A    between atoms: _520  and  _521
REMARK  220  A    between atoms: _523  and  _525
REMARK  221  A    between atoms: _525  and  _526
REMARK  222  A    between atoms: _525  and  _528
REMARK  223  A    between atoms: _528  and  _529
REMARK  224  A    between atoms: _529  and  _530
REMARK  225  A    between atoms: _530  and  _531
REMARK  226  A    between atoms: _540  and  _542
REMARK  227  A    between atoms: _542  and  _543
REMARK  228  A    between atoms: _542  and  _545
REMARK  229  A    between atoms: _545  and  _546
REMARK  230  A    between atoms: _548  and  _550
REMARK  231  A    between atoms: _550  and  _551
REMARK  232  A    between atoms: _550  and  _553
REMARK  233  A    between atoms: _553  and  _554
REMARK  234  A    between atoms: _559  and  _560
REMARK  235  A    between atoms: _562  and  _564
REMARK  236  A    between atoms: _564  and  _565
REMARK  237  A    between atoms: _568  and  _570
REMARK  238  A    between atoms: _570  and  _571
REMARK  239  A    between atoms: _574  and  _576
REMARK  240  A    between atoms: _576  and  _577
REMARK  241  A    between atoms: _576  and  _579
REMARK  242  A    between atoms: _579  and  _580
REMARK  243  A    between atoms: _580  and  _581
REMARK  244  A    between atoms: _581  and  _582
REMARK  245  A    between atoms: _591  and  _593
REMARK  246  A    between atoms: _593  and  _594
REMARK  247  A    between atoms: _593  and  _596
REMARK  248  A    between atoms: _599  and  _601
REMARK  249  A    between atoms: _601  and  _602
REMARK  250  A    between atoms: _604  and  _606
REMARK  251  A    between atoms: _606  and  _607
REMARK  252  A    between atoms: _606  and  _609
REMARK  253  A    between atoms: _609  and  _610
REMARK  254  A    between atoms: _613  and  _615
REMARK  255  A    between atoms: _615  and  _616
REMARK  256  A    between atoms: _619  and  _621
REMARK  257  A    between atoms: _621  and  _622
REMARK  258  A    between atoms: _621  and  _624
REMARK  259  A    between atoms: _624  and  _625
REMARK  260  A    between atoms: _628  and  _630
REMARK  261  A    between atoms: _630  and  _631
REMARK  262  A    between atoms: _630  and  _633
REMARK  263  A    between atoms: _633  and  _634
REMARK  264  A    between atoms: _639  and  _640
REMARK  265  A    between atoms: _642  and  _644
REMARK  266  A    between atoms: _644  and  _645
REMARK  267  A    between atoms: _644  and  _647
REMARK  268  A    between atoms: _647  and  _648
REMARK  269  A    between atoms: _648  and  _649
REMARK  270  A    between atoms: _651  and  _653
REMARK  271  A    between atoms: _653  and  _654
REMARK  272  A    between atoms: _653  and  _656
REMARK  273  A    between atoms: _656  and  _657
REMARK  274  A    between atoms: _657  and  _658
REMARK  275  A    between atoms: _661  and  _663
REMARK  276  A    between atoms: _663  and  _664
REMARK  277  A    between atoms: _663  and  _666
REMARK  278  A    between atoms: _666  and  _667
REMARK  279  A    between atoms: _673  and  _675
REMARK  280  A    between atoms: _675  and  _676
REMARK  281  A    between atoms: _675  and  _678
REMARK  282  A    between atoms: _678  and  _679
REMARK  283  A    between atoms: _684  and  _686
REMARK  284  A    between atoms: _686  and  _687
REMARK  285  A    between atoms: _686  and  _689
REMARK  286  A    between atoms: _689  and  _690
REMARK  287  A    between atoms: _700  and  _702
REMARK  288  A    between atoms: _702  and  _703
REMARK  289  A    between atoms: _702  and  _705
REMARK  290  A    between atoms: _708  and  _710
REMARK  291  A    between atoms: _710  and  _711
REMARK  292  A    between atoms: _710  and  _713
REMARK  293  A    between atoms: _713  and  _714
REMARK  294  A    between atoms: _717  and  _719
REMARK  295  A    between atoms: _719  and  _720
REMARK  296  A    between atoms: _719  and  _722
REMARK  297  A    between atoms: _722  and  _723
REMARK  298  A    between atoms: _723  and  _724
REMARK  299  A    between atoms: _726  and  _728
REMARK  300  A    between atoms: _728  and  _729
REMARK  301  A    between atoms: _728  and  _731
REMARK  302  A    between atoms: _731  and  _732
REMARK  303  A    between atoms: _735  and  _737
REMARK  304  A    between atoms: _737  and  _738
REMARK  305  A    between atoms: _737  and  _740
REMARK  306  A    between atoms: _740  and  _741
REMARK  307  A    between atoms: _744  and  _746
REMARK  308  A    between atoms: _746  and  _747
REMARK  309  A    between atoms: _746  and  _749
REMARK  310  A    between atoms: _749  and  _750
REMARK  311  A    between atoms: _753  and  _755
REMARK  312  A    between atoms: _755  and  _756
REMARK  313  A    between atoms: _755  and  _758
REMARK  314  A    between atoms: _758  and  _759
REMARK  315  A    between atoms: _762  and  _764
REMARK  316  A    between atoms: _764  and  _765
REMARK  317  A    between atoms: _767  and  _769
REMARK  318  A    between atoms: _769  and  _770
REMARK  319  A    between atoms: _769  and  _772
REMARK  320  A    between atoms: _772  and  _773
REMARK  321  A    between atoms: _775  and  _777
REMARK  322  A    between atoms: _777  and  _778
REMARK  323  A    between atoms: _777  and  _780
REMARK  324  A    between atoms: _780  and  _781
REMARK  325  A    between atoms: _791  and  _793
REMARK  326  A    between atoms: _793  and  _794
REMARK  327  A    between atoms: _793  and  _796
REMARK  328  A    between atoms: _796  and  _797
REMARK  329  A    between atoms: _799  and  _801
REMARK  330  A    between atoms: _801  and  _802
REMARK  331  A    between atoms: _801  and  _804
REMARK  332  A    between atoms: _804  and  _805
REMARK  333  A    between atoms: _808  and  _810
REMARK  334  A    between atoms: _810  and  _811
REMARK  335  A    between atoms: _814  and  _816
REMARK  336  A    between atoms: _816  and  _817
REMARK  337  A    between atoms: _816  and  _819
REMARK  338  A    between atoms: _819  and  _820
REMARK  339  A    between atoms: _822  and  _824
REMARK  340  A    between atoms: _824  and  _825
REMARK  341  A    between atoms: _824  and  _827
REMARK  342  A    between atoms: _827  and  _828
REMARK  343  A    between atoms: _828  and  _829
REMARK  344  A    between atoms: _832  and  _834
REMARK  345  A    between atoms: _834  and  _835
REMARK  346  A    between atoms: _834  and  _837
REMARK  347  A    between atoms: _837  and  _838
REMARK  348  A    between atoms: _840  and  _842
REMARK  349  A    between atoms: _842  and  _843
REMARK  350  A    between atoms: _842  and  _845
REMARK  351  A    between atoms: _845  and  _846
REMARK  352  A    between atoms: _846  and  _847
REMARK  353  A    between atoms: _852  and  _854
REMARK  354  A    between atoms: _854  and  _855
REMARK  355  A    between atoms: _854  and  _857
REMARK  356  A    between atoms: _857  and  _858
REMARK  357  A    between atoms: _858  and  _859
REMARK  358  A    between atoms: _864  and  _866
REMARK  359  A    between atoms: _866  and  _867
REMARK  360  A    between atoms: _866  and  _869
REMARK  361  A    between atoms: _869  and  _870
REMARK  362  A    between atoms: _873  and  _875
REMARK  363  A    between atoms: _875  and  _876
REMARK  364  A    between atoms: _875  and  _878
REMARK  365  A    between atoms: _878  and  _879
REMARK  366  A    between atoms: _882  and  _884
REMARK  367  A    between atoms: _884  and  _885
REMARK  368  A    between atoms: _884  and  _887
REMARK  369  A    between atoms: _887  and  _888
REMARK  370  A    between atoms: _895  and  _896
REMARK  371  A    between atoms: _901  and  _903
REMARK  372  A    between atoms: _903  and  _904
REMARK  373  A    between atoms: _903  and  _906
REMARK  374  A    between atoms: _906  and  _907
REMARK  375  A    between atoms: _912  and  _913
REMARK  376  A    between atoms: _915  and  _917
REMARK  377  A    between atoms: _917  and  _918
REMARK  378  A    between atoms: _917  and  _920
REMARK  379  A    between atoms: _920  and  _921
REMARK  380  A    between atoms: _926  and  _928
REMARK  381  A    between atoms: _928  and  _929
REMARK  382  A    between atoms: _928  and  _931
REMARK  383  A    between atoms: _931  and  _932
REMARK  384  A    between atoms: _938  and  _940
REMARK  385  A    between atoms: _940  and  _941
REMARK  386  A    between atoms: _940  and  _943
REMARK  387  A    between atoms: _943  and  _944
REMARK  388  A    between atoms: _947  and  _949
REMARK  389  A    between atoms: _949  and  _950
REMARK  390  A    between atoms: _949  and  _952
REMARK  391  A    between atoms: _952  and  _953
REMARK  392  A    between atoms: _958  and  _960
REMARK  393  A    between atoms: _960  and  _961
REMARK  394  A    between atoms: _960  and  _963
REMARK  395  A    between atoms: _963  and  _964
REMARK  396  A    between atoms: _970  and  _972
REMARK  397  A    between atoms: _972  and  _973
REMARK  398  A    between atoms: _972  and  _975
REMARK  399  A    between atoms: _975  and  _976
REMARK  400  A    between atoms: _976  and  _977
REMARK  401  A    between atoms: _979  and  _981
REMARK  402  A    between atoms: _981  and  _982
REMARK  403  A    between atoms: _981  and  _984
REMARK  404  A    between atoms: _984  and  _985
REMARK  405  A    between atoms: _988  and  _990
REMARK  406  A    between atoms: _990  and  _991
REMARK  407  A    between atoms: _990  and  _993
REMARK  408  A    between atoms: _993  and  _994
REMARK  409  A    between atoms: _999  and  _1001
REMARK  410  A    between atoms: _1001  and  _1002
REMARK  411  A    between atoms: _1001  and  _1004
REMARK  412  A    between atoms: _1004  and  _1005
REMARK  413  A    between atoms: _1010  and  _1011
REMARK                            x       y       z     vdW  Elec       q    Type
REMARK                         _______ _______ _______ _____ _____    ______ ____
ROOT
ATOM      1  O   HOH     1     -16.222   2.269  19.926  0.00  0.00    +0.000 OA
ENDROOT
TORSDOF 0
REMARK  Name = ../refined-set-2016/3drg/3drg_pocket.pdb
REMARK  413 active torsions:
REMARK  status: ('A' for Active; 'I' for Inactive)
REMARK    1  A    between atoms: _1  and  _3
REMARK    2  A    between atoms: _3  and  _4
REMARK    3  A    between atoms: _3  and  _6
REMARK    4  A    between atoms: _6  and  _7
REMARK    5  A    between atoms: _12  and  _13
REMARK    6  A    between atoms: _15  and  _17
REMARK    7  A    between atoms: _17  and  _18
REMARK    8  A    between atoms: _17  and  _20
REMARK    9  A    between atoms: _20  and  _21
REMARK   10  A    between atoms: _21  and  _22
REMARK   11  A    between atoms: _27  and  _29
REMARK   12  A    between atoms: _29  and  _30
REMARK   13  A    between atoms: _29  and  _32
REMARK   14  A    between atoms: _32  and  _33
REMARK   15  A    between atoms: _35  and  _37
REMARK   16  A    between atoms: _37  and  _38
REMARK   17  A    between atoms: _37  and  _40
REMARK   18  A    between atoms: _40  and  _41
REMARK   19  A    between atoms: _44  and  _46
REMARK   20  A    between atoms: _46  and  _47
REMARK   21  A    between atoms: _46  and  _49
REMARK   22  A    between atoms: _49  and  _50
REMARK   23  A    between atoms: _52  and  _54
REMARK   24  A    between atoms: _54  and  _55
REMARK   25  A    between atoms: _54  and  _57
REMARK   26  A    between atoms: _57  and  _58
REMARK   27  A    between atoms: _61  and  _63
REMARK   28  A    between atoms: _63  and  _64
REMARK   29  A    between atoms: _63  and  _66
REMARK   30  A    between atoms: _66  and  _67
REMARK   31  A    between atoms: _69  and  _71
REMARK   32  A    between atoms: _71  and  _72
REMARK   33  A    between atoms: _74  and  _76
REMARK   34  A    between atoms: _76  and  _77
REMARK   35  A    between atoms: _76  and  _79
REMARK   36  A    between atoms: _79  and  _80
REMARK   37  A    between atoms: _82  and  _84
REMARK   38  A    between atoms: _84  and  _85
REMARK   39  A    between atoms: _84  and  _87
REMARK   40  A    between atoms: _87  and  _88
REMARK   41  A    between atoms: _93  and  _95
REMARK   42  A    between atoms: _95  and  _96
REMARK   43  A    between atoms: _95  and  _98
REMARK   44  A    between atoms: _98  and  _99
REMARK   45  A    between atoms: _102  and  _104
REMARK   46  A    between atoms: _104  and  _105
REMARK   47  A    between atoms: _108  and  _110
REMARK   48  A    between atoms: _110  and  _111
REMARK   49  A    between atoms: _110  and  _113
REMARK   50  A    between atoms: _113  and  _114
REMARK   51  A    between atoms: _117  and  _119
REMARK   52  A    between atoms: _119  and  _120
REMARK   53  A    between atoms: _119  and  _122
REMARK   54  A    between atoms: _122  and  _123
REMARK   55  A    between atoms: _129  and  _131
REMARK   56  A    between atoms: _131  and  _132
REMARK   57  A    between atoms: _135  and  _137
REMARK   58  A    between atoms: _137  and  _138
REMARK   59  A    between atoms: _137  and  _140
REMARK   60  A    between atoms: _140  and  _141
REMARK   61  A    between atoms: _144  and  _146
REMARK   62  A    between atoms: _146  and  _147
REMARK   63  A    between atoms: _146  and  _149
REMARK   64  A    between atoms: _149  and  _150
REMARK   65  A    between atoms: _152  and  _154
REMARK   66  A    between atoms: _154  and  _155
REMARK   67  A    between atoms: _157  and  _159
REMARK   68  A    between atoms: _159  and  _160
REMARK   69  A    between atoms: _162  and  _164
REMARK   70  A    between atoms: _164  and  _165
REMARK   71  A    between atoms: _164  and  _167
REMARK   72  A    between atoms: _167  and  _168
REMARK   73  A    between atoms: _168  and  _169
REMARK   74  A    between atoms: _174  and  _176
REMARK   75  A    between atoms: _176  and  _177
REMARK   76  A    between atoms: _176  and  _179
REMARK   77  A    between atoms: _179  and  _180
REMARK   78  A    between atoms: _183  and  _185
REMARK   79  A    between atoms: _185  and  _186
REMARK   80  A    between atoms: _188  and  _190
REMARK   81  A    between atoms: _190  and  _191
REMARK   82  A    between atoms: _190  and  _193
REMARK   83  A    between atoms: _193  and  _194
REMARK   84  A    between atoms: _197  and  _199
REMARK   85  A    between atoms: _199  and  _200
REMARK   86  A    between atoms: _199  and  _202
REMARK   87  A    between atoms: _202  and  _203
REMARK   88  A    between atoms: _209  and  _211
REMARK   89  A    between atoms: _211  and  _212
REMARK   90  A    between atoms: _211  and  _214
REMARK   91  A    between atoms: _214  and  _215
REMARK   92  A    between atoms: _218  and  _220
REMARK   93  A    between atoms: _220  and  _221
REMARK   94  A    between atoms: _220  and  _223
REMARK   95  A    between atoms: _223  and  _224
REMARK   96  A    between atoms: _230  and  _232
REMARK   97  A    between atoms: _232  and  _233
REMARK   98  A    between atoms: _232  and  _235
REMARK   99  A    between atoms: _235  and  _236
REMARK  100  A    between atoms: _242  and  _244
REMARK  101  A    between atoms: _244  and  _245
REMARK  102  A    between atoms: _244  and  _247
REMARK  103  A    between atoms: _247  and  _248
REMARK  104  A    between atoms: _251  and  _253
REMARK  105  A    between atoms: _253  and  _254
REMARK  106  A    between atoms: _253  and  _256
REMARK  107  A    between atoms: _256  and  _257
REMARK  108  A    between atoms: _260  and  _262
REMARK  109  A    between atoms: _262  and  _263
REMARK  110  A    between atoms: _262  and  _265
REMARK  111  A    between atoms: _265  and  _266
REMARK  112  A    between atoms: _266  and  _267
REMARK  113  A    between atoms: _267  and  _268
REMARK  114  A    between atoms: _277  and  _279
REMARK  115  A    between atoms: _279  and  _280
REMARK  116  A    between atoms: _279  and  _282
REMARK  117  A    between atoms: _282  and  _283
REMARK  118  A    between atoms: _286  and  _288
REMARK  119  A    between atoms: _288  and  _289
REMARK  120  A    between atoms: _288  and  _291
REMARK  121  A    between atoms: _291  and  _292
REMARK  122  A    between atoms: _292  and  _293
REMARK  123  A    between atoms: _298  and  _300
REMARK  124  A    between atoms: _300  and  _301
REMARK  125  A    between atoms: _300  and  _303
REMARK  126  A    between atoms: _303  and  _304
REMARK  127  A    between atoms: _306  and  _308
REMARK  128  A    between atoms: _308  and  _309
REMARK  129  A    between atoms: _311  and  _313
REMARK  130  A    between atoms: _313  and  _314
REMARK  131  A    between atoms: _313  and  _316
REMARK  132  A    between atoms: _316  and  _317
REMARK  133  A    between atoms: _322  and  _324
REMARK  134  A    between atoms: _324  and  _325
REMARK  135  A    between atoms: _327  and  _329
REMARK  136  A    between atoms: _329  and  _330
REMARK  137  A    between atoms: _329  and  _332
REMARK  138  A    between atoms: _332  and  _333
REMARK  139  A    between atoms: _339  and  _341
REMARK  140  A    between atoms: _341  and  _342
REMARK  141  A    between atoms: _341  and  _344
REMARK  142  A    between atoms: _344  and  _345
REMARK  143  A    between atoms: _348  and  _350
REMARK  144  A    between atoms: _350  and  _351
REMARK  145  A    between atoms: _350  and  _353
REMARK  146  A    between atoms: _353  and  _354
REMARK  147  A    between atoms: _354  and  _355
REMARK  148  A    between atoms: _358  and  _360
REMARK  149  A    between atoms: _360  and  _361
REMARK  150  A    between atoms: _360  and  _363
REMARK  151  A    between atoms: _363  and  _364
REMARK  152  A    between atoms: _367  and  _369
REMARK  153  A    between atoms: _369  and  _370
REMARK  154  A    between atoms: _369  and  _372
REMARK  155  A    between atoms: _375  and  _377
REMARK  156  A    between atoms: _377  and  _378
REMARK  157  A    between atoms: _377  and  _380
REMARK  158  A    between atoms: _380  and  _381
REMARK  159  A    between atoms: _384  and  _386
REMARK  160  A    between atoms: _386  and  _387
REMARK  161  A    between atoms: _386  and  _389
REMARK  162  A    between atoms: _389  and  _390
REMARK  163  A    between atoms: _395  and  _397
REMARK  164  A    between atoms: _397  and  _398
REMARK  165  A    between atoms: _400  and  _402
REMARK  166  A    between atoms: _402  and  _403
REMARK  167  A    between atoms: _402  and  _405
REMARK  168  A    between atoms: _405  and  _406
REMARK  169  A    between atoms: _406  and  _407
REMARK  170  A    between atoms: _409  and  _411
REMARK  171  A    between atoms: _411  and  _412
REMARK  172  A    between atoms: _411  and  _414
REMARK  173  A    between atoms: _417  and  _419
REMARK  174  A    between atoms: _419  and  _420
REMARK  175  A    between atoms: _419  and  _422
REMARK  176  A    between atoms: _422  and  _423
REMARK  177  A    between atoms: _425  and  _427
REMARK  178  A    between atoms: _427  and  _428
REMARK  179  A    between atoms: _427  and  _430
REMARK  180  A    between atoms: _430  and  _431
REMARK  181  A    between atoms: _433  and  _435
REMARK  182  A    between atoms: _435  and  _436
REMARK  183  A    between atoms: _435  and  _438
REMARK  184  A    between atoms: _438  and  _439
REMARK  185  A    between atoms: _439  and  _440
REMARK  186  A    between atoms: _445  and  _447
REMARK  187  A    between atoms: _447  and  _448
REMARK  188  A    between atoms: _451  and  _453
REMARK  189  A    between atoms: _453  and  _454
REMARK  190  A    between atoms: _453  and  _456
REMARK  191  A    between atoms: _456  and  _457
REMARK  192  A    between atoms: _457  and  _458
REMARK  193  A    between atoms: _460  and  _462
REMARK  194  A    between atoms: _462  and  _463
REMARK  195  A    between atoms: _462  and  _465
REMARK  196  A    between atoms: _465  and  _466
REMARK  197  A    between atoms: _471  and  _472
REMARK  198  A    between atoms: _474  and  _476
REMARK  199  A    between atoms: _476  and  _477
REMARK  200  A    between atoms: _476  and  _479
REMARK  201  A    between atoms: _479  and  _480
REMARK  202  A    between atoms: _483  and  _485
REMARK  203  A    between atoms: _485  and  _486
REMARK  204  A    between atoms: _485  and  _488
REMARK  205  A    between atoms: _488  and  _489
REMARK  206  A    between atoms: _491  and  _493
REMARK  207  A    between atoms: _493  and  _494
REMARK  208  A    between atoms: _493  and  _496
REMARK  209  A    between atoms: _496  and  _497
REMARK  210  A    between atoms: _500  and  _502
REMARK  211  A    between atoms: _502  and  _503
REMARK  212  A    between atoms: _502  and  _505
REMARK  213  A    between atoms: _505  and  _506
REMARK  214  A    between atoms: _506  and  _507
REMARK  215  A    between atoms: _509  and  _511
REMARK  216  A    between atoms: _511  and  _512
REMARK  217  A    between atoms: _511  and  _514
REMARK  218  A    between atoms: _514  and  _515
REMARK  219  A    between atoms: _520  and  _521
REMARK  220  A    between atoms: _523  and  _525
REMARK  221  A    between atoms: _525  and  _526
REMARK  222  A    between atoms: _525  and  _528
REMARK  223  A    between atoms: _528  and  _529
REMARK  224  A    between atoms: _529  and  _530
REMARK  225  A    between atoms: _530  and  _531
REMARK  226  A    between atoms: _540  and  _542
REMARK  227  A    between atoms: _542  and  _543
REMARK  228  A    between atoms: _542  and  _545
REMARK  229  A    between atoms: _545  and  _546
REMARK  230  A    between atoms: _548  and  _550
REMARK  231  A    between atoms: _550  and  _551
REMARK  232  A    between atoms: _550  and  _553
REMARK  233  A    between atoms: _553  and  _554
REMARK  234  A    between atoms: _559  and  _560
REMARK  235  A    between atoms: _562  and  _564
REMARK  236  A    between atoms: _564  and  _565
REMARK  237  A    between atoms: _568  and  _570
REMARK  238  A    between atoms: _570  and  _571
REMARK  239  A    between atoms: _574  and  _576
REMARK  240  A    between atoms: _576  and  _577
REMARK  241  A    between atoms: _576  and  _579
REMARK  242  A    between atoms: _579  and  _580
REMARK  243  A    between atoms: _580  and  _581
REMARK  244  A    between atoms: _581  and  _582
REMARK  245  A    between atoms: _591  and  _593
REMARK  246  A    between atoms: _593  and  _594
REMARK  247  A    between atoms: _593  and  _596
REMARK  248  A    between atoms: _599  and  _601
REMARK  249  A    between atoms: _601  and  _602
REMARK  250  A    between atoms: _604  and  _606
REMARK  251  A    between atoms: _606  and  _607
REMARK  252  A    between atoms: _606  and  _609
REMARK  253  A    between atoms: _609  and  _610
REMARK  254  A    between atoms: _613  and  _615
REMARK  255  A    between atoms: _615  and  _616
REMARK  256  A    between atoms: _619  and  _621
REMARK  257  A    between atoms: _621  and  _622
REMARK  258  A    between atoms: _621  and  _624
REMARK  259  A    between atoms: _624  and  _625
REMARK  260  A    between atoms: _628  and  _630
REMARK  261  A    between atoms: _630  and  _631
REMARK  262  A    between atoms: _630  and  _633
REMARK  263  A    between atoms: _633  and  _634
REMARK  264  A    between atoms: _639  and  _640
REMARK  265  A    between atoms: _642  and  _644
REMARK  266  A    between atoms: _644  and  _645
REMARK  267  A    between atoms: _644  and  _647
REMARK  268  A    between atoms: _647  and  _648
REMARK  269  A    between atoms: _648  and  _649
REMARK  270  A    between atoms: _651  and  _653
REMARK  271  A    between atoms: _653  and  _654
REMARK  272  A    between atoms: _653  and  _656
REMARK  273  A    between atoms: _656  and  _657
REMARK  274  A    between atoms: _657  and  _658
REMARK  275  A    between atoms: _661  and  _663
REMARK  276  A    between atoms: _663  and  _664
REMARK  277  A    between atoms: _663  and  _666
REMARK  278  A    between atoms: _666  and  _667
REMARK  279  A    between atoms: _673  and  _675
REMARK  280  A    between atoms: _675  and  _676
REMARK  281  A    between atoms: _675  and  _678
REMARK  282  A    between atoms: _678  and  _679
REMARK  283  A    between atoms: _684  and  _686
REMARK  284  A    between atoms: _686  and  _687
REMARK  285  A    between atoms: _686  and  _689
REMARK  286  A    between atoms: _689  and  _690
REMARK  287  A    between atoms: _700  and  _702
REMARK  288  A    between atoms: _702  and  _703
REMARK  289  A    between atoms: _702  and  _705
REMARK  290  A    between atoms: _708  and  _710
REMARK  291  A    between atoms: _710  and  _711
REMARK  292  A    between atoms: _710  and  _713
REMARK  293  A    between atoms: _713  and  _714
REMARK  294  A    between atoms: _717  and  _719
REMARK  295  A    between atoms: _719  and  _720
REMARK  296  A    between atoms: _719  and  _722
REMARK  297  A    between atoms: _722  and  _723
REMARK  298  A    between atoms: _723  and  _724
REMARK  299  A    between atoms: _726  and  _728
REMARK  300  A    between atoms: _728  and  _729
REMARK  301  A    between atoms: _728  and  _731
REMARK  302  A    between atoms: _731  and  _732
REMARK  303  A    between atoms: _735  and  _737
REMARK  304  A    between atoms: _737  and  _738
REMARK  305  A    between atoms: _737  and  _740
REMARK  306  A    between atoms: _740  and  _741
REMARK  307  A    between atoms: _744  and  _746
REMARK  308  A    between atoms: _746  and  _747
REMARK  309  A    between atoms: _746  and  _749
REMARK  310  A    between atoms: _749  and  _750
REMARK  311  A    between atoms: _753  and  _755
REMARK  312  A    between atoms: _755  and  _756
REMARK  313  A    between atoms: _755  and  _758
REMARK  314  A    between atoms: _758  and  _759
REMARK  315  A    between atoms: _762  and  _764
REMARK  316  A    between atoms: _764  and  _765
REMARK  317  A    between atoms: _767  and  _769
REMARK  318  A    between atoms: _769  and  _770
REMARK  319  A    between atoms: _769  and  _772
REMARK  320  A    between atoms: _772  and  _773
REMARK  321  A    between atoms: _775  and  _777
REMARK  322  A    between atoms: _777  and  _778
REMARK  323  A    between atoms: _777  and  _780
REMARK  324  A    between atoms: _780  and  _781
REMARK  325  A    between atoms: _791  and  _793
REMARK  326  A    between atoms: _793  and  _794
REMARK  327  A    between atoms: _793  and  _796
REMARK  328  A    between atoms: _796  and  _797
REMARK  329  A    between atoms: _799  and  _801
REMARK  330  A    between atoms: _801  and  _802
REMARK  331  A    between atoms: _801  and  _804
REMARK  332  A    between atoms: _804  and  _805
REMARK  333  A    between atoms: _808  and  _810
REMARK  334  A    between atoms: _810  and  _811
REMARK  335  A    between atoms: _814  and  _816
REMARK  336  A    between atoms: _816  and  _817
REMARK  337  A    between atoms: _816  and  _819
REMARK  338  A    between atoms: _819  and  _820
REMARK  339  A    between atoms: _822  and  _824
REMARK  340  A    between atoms: _824  and  _825
REMARK  341  A    between atoms: _824  and  _827
REMARK  342  A    between atoms: _827  and  _828
REMARK  343  A    between atoms: _828  and  _829
REMARK  344  A    between atoms: _832  and  _834
REMARK  345  A    between atoms: _834  and  _835
REMARK  346  A    between atoms: _834  and  _837
REMARK  347  A    between atoms: _837  and  _838
REMARK  348  A    between atoms: _840  and  _842
REMARK  349  A    between atoms: _842  and  _843
REMARK  350  A    between atoms: _842  and  _845
REMARK  351  A    between atoms: _845  and  _846
REMARK  352  A    between atoms: _846  and  _847
REMARK  353  A    between atoms: _852  and  _854
REMARK  354  A    between atoms: _854  and  _855
REMARK  355  A    between atoms: _854  and  _857
REMARK  356  A    between atoms: _857  and  _858
REMARK  357  A    between atoms: _858  and  _859
REMARK  358  A    between atoms: _864  and  _866
REMARK  359  A    between atoms: _866  and  _867
REMARK  360  A    between atoms: _866  and  _869
REMARK  361  A    between atoms: _869  and  _870
REMARK  362  A    between atoms: _873  and  _875
REMARK  363  A    between atoms: _875  and  _876
REMARK  364  A    between atoms: _875  and  _878
REMARK  365  A    between atoms: _878  and  _879
REMARK  366  A    between atoms: _882  and  _884
REMARK  367  A    between atoms: _884  and  _885
REMARK  368  A    between atoms: _884  and  _887
REMARK  369  A    between atoms: _887  and  _888
REMARK  370  A    between atoms: _895  and  _896
REMARK  371  A    between atoms: _901  and  _903
REMARK  372  A    between atoms: _903  and  _904
REMARK  373  A    between atoms: _903  and  _906
REMARK  374  A    between atoms: _906  and  _907
REMARK  375  A    between atoms: _912  and  _913
REMARK  376  A    between atoms: _915  and  _917
REMARK  377  A    between atoms: _917  and  _918
REMARK  378  A    between atoms: _917  and  _920
REMARK  379  A    between atoms: _920  and  _921
REMARK  380  A    between atoms: _926  and  _928
REMARK  381  A    between atoms: _928  and  _929
REMARK  382  A    between atoms: _928  and  _931
REMARK  383  A    between atoms: _931  and  _932
REMARK  384  A    between atoms: _938  and  _940
REMARK  385  A    between atoms: _940  and  _941
REMARK  386  A    between atoms: _940  and  _943
REMARK  387  A    between atoms: _943  and  _944
REMARK  388  A    between atoms: _947  and  _949
REMARK  389  A    between atoms: _949  and  _950
REMARK  390  A    between atoms: _949  and  _952
REMARK  391  A    between atoms: _952  and  _953
REMARK  392  A    between atoms: _958  and  _960
REMARK  393  A    between atoms: _960  and  _961
REMARK  394  A    between atoms: _960  and  _963
REMARK  395  A    between atoms: _963  and  _964
REMARK  396  A    between atoms: _970  and  _972
REMARK  397  A    between atoms: _972  and  _973
REMARK  398  A    between atoms: _972  and  _975
REMARK  399  A    between atoms: _975  and  _976
REMARK  400  A    between atoms: _976  and  _977
REMARK  401  A    between atoms: _979  and  _981
REMARK  402  A    between atoms: _981  and  _982
REMARK  403  A    between atoms: _981  and  _984
REMARK  404  A    between atoms: _984  and  _985
REMARK  405  A    between atoms: _988  and  _990
REMARK  406  A    between atoms: _990  and  _991
REMARK  407  A    between atoms: _990  and  _993
REMARK  408  A    between atoms: _993  and  _994
REMARK  409  A    between atoms: _999  and  _1001
REMARK  410  A    between atoms: _1001  and  _1002
REMARK  411  A    between atoms: _1001  and  _1004
REMARK  412  A    between atoms: _1004  and  _1005
REMARK  413  A    between atoms: _1010  and  _1011
REMARK                            x       y       z     vdW  Elec       q    Type
REMARK                         _______ _______ _______ _____ _____    ______ ____
ROOT
ATOM      1  O   HOH     1     -12.926 -22.524  13.433  0.00  0.00    +0.000 OA
ENDROOT
TORSDOF 0
REMARK  Name = ../refined-set-2016/3drg/3drg_pocket.pdb
REMARK  413 active torsions:
REMARK  status: ('A' for Active; 'I' for Inactive)
REMARK    1  A    between atoms: _1  and  _3
REMARK    2  A    between atoms: _3  and  _4
REMARK    3  A    between atoms: _3  and  _6
REMARK    4  A    between atoms: _6  and  _7
REMARK    5  A    between atoms: _12  and  _13
REMARK    6  A    between atoms: _15  and  _17
REMARK    7  A    between atoms: _17  and  _18
REMARK    8  A    between atoms: _17  and  _20
REMARK    9  A    between atoms: _20  and  _21
REMARK   10  A    between atoms: _21  and  _22
REMARK   11  A    between atoms: _27  and  _29
REMARK   12  A    between atoms: _29  and  _30
REMARK   13  A    between atoms: _29  and  _32
REMARK   14  A    between atoms: _32  and  _33
REMARK   15  A    between atoms: _35  and  _37
REMARK   16  A    between atoms: _37  and  _38
REMARK   17  A    between atoms: _37  and  _40
REMARK   18  A    between atoms: _40  and  _41
REMARK   19  A    between atoms: _44  and  _46
REMARK   20  A    between atoms: _46  and  _47
REMARK   21  A    between atoms: _46  and  _49
REMARK   22  A    between atoms: _49  and  _50
REMARK   23  A    between atoms: _52  and  _54
REMARK   24  A    between atoms: _54  and  _55
REMARK   25  A    between atoms: _54  and  _57
REMARK   26  A    between atoms: _57  and  _58
REMARK   27  A    between atoms: _61  and  _63
REMARK   28  A    between atoms: _63  and  _64
REMARK   29  A    between atoms: _63  and  _66
REMARK   30  A    between atoms: _66  and  _67
REMARK   31  A    between atoms: _69  and  _71
REMARK   32  A    between atoms: _71  and  _72
REMARK   33  A    between atoms: _74  and  _76
REMARK   34  A    between atoms: _76  and  _77
REMARK   35  A    between atoms: _76  and  _79
REMARK   36  A    between atoms: _79  and  _80
REMARK   37  A    between atoms: _82  and  _84
REMARK   38  A    between atoms: _84  and  _85
REMARK   39  A    between atoms: _84  and  _87
REMARK   40  A    between atoms: _87  and  _88
REMARK   41  A    between atoms: _93  and  _95
REMARK   42  A    between atoms: _95  and  _96
REMARK   43  A    between atoms: _95  and  _98
REMARK   44  A    between atoms: _98  and  _99
REMARK   45  A    between atoms: _102  and  _104
REMARK   46  A    between atoms: _104  and  _105
REMARK   47  A    between atoms: _108  and  _110
REMARK   48  A    between atoms: _110  and  _111
REMARK   49  A    between atoms: _110  and  _113
REMARK   50  A    between atoms: _113  and  _114
REMARK   51  A    between atoms: _117  and  _119
REMARK   52  A    between atoms: _119  and  _120
REMARK   53  A    between atoms: _119  and  _122
REMARK   54  A    between atoms: _122  and  _123
REMARK   55  A    between atoms: _129  and  _131
REMARK   56  A    between atoms: _131  and  _132
REMARK   57  A    between atoms: _135  and  _137
REMARK   58  A    between atoms: _137  and  _138
REMARK   59  A    between atoms: _137  and  _140
REMARK   60  A    between atoms: _140  and  _141
REMARK   61  A    between atoms: _144  and  _146
REMARK   62  A    between atoms: _146  and  _147
REMARK   63  A    between atoms: _146  and  _149
REMARK   64  A    between atoms: _149  and  _150
REMARK   65  A    between atoms: _152  and  _154
REMARK   66  A    between atoms: _154  and  _155
REMARK   67  A    between atoms: _157  and  _159
REMARK   68  A    between atoms: _159  and  _160
REMARK   69  A    between atoms: _162  and  _164
REMARK   70  A    between atoms: _164  and  _165
REMARK   71  A    between atoms: _164  and  _167
REMARK   72  A    between atoms: _167  and  _168
REMARK   73  A    between atoms: _168  and  _169
REMARK   74  A    between atoms: _174  and  _176
REMARK   75  A    between atoms: _176  and  _177
REMARK   76  A    between atoms: _176  and  _179
REMARK   77  A    between atoms: _179  and  _180
REMARK   78  A    between atoms: _183  and  _185
REMARK   79  A    between atoms: _185  and  _186
REMARK   80  A    between atoms: _188  and  _190
REMARK   81  A    between atoms: _190  and  _191
REMARK   82  A    between atoms: _190  and  _193
REMARK   83  A    between atoms: _193  and  _194
REMARK   84  A    between atoms: _197  and  _199
REMARK   85  A    between atoms: _199  and  _200
REMARK   86  A    between atoms: _199  and  _202
REMARK   87  A    between atoms: _202  and  _203
REMARK   88  A    between atoms: _209  and  _211
REMARK   89  A    between atoms: _211  and  _212
REMARK   90  A    between atoms: _211  and  _214
REMARK   91  A    between atoms: _214  and  _215
REMARK   92  A    between atoms: _218  and  _220
REMARK   93  A    between atoms: _220  and  _221
REMARK   94  A    between atoms: _220  and  _223
REMARK   95  A    between atoms: _223  and  _224
REMARK   96  A    between atoms: _230  and  _232
REMARK   97  A    between atoms: _232  and  _233
REMARK   98  A    between atoms: _232  and  _235
REMARK   99  A    between atoms: _235  and  _236
REMARK  100  A    between atoms: _242  and  _244
REMARK  101  A    between atoms: _244  and  _245
REMARK  102  A    between atoms: _244  and  _247
REMARK  103  A    between atoms: _247  and  _248
REMARK  104  A    between atoms: _251  and  _253
REMARK  105  A    between atoms: _253  and  _254
REMARK  106  A    between atoms: _253  and  _256
REMARK  107  A    between atoms: _256  and  _257
REMARK  108  A    between atoms: _260  and  _262
REMARK  109  A    between atoms: _262  and  _263
REMARK  110  A    between atoms: _262  and  _265
REMARK  111  A    between atoms: _265  and  _266
REMARK  112  A    between atoms: _266  and  _267
REMARK  113  A    between atoms: _267  and  _268
REMARK  114  A    between atoms: _277  and  _279
REMARK  115  A    between atoms: _279  and  _280
REMARK  116  A    between atoms: _279  and  _282
REMARK  117  A    between atoms: _282  and  _283
REMARK  118  A    between atoms: _286  and  _288
REMARK  119  A    between atoms: _288  and  _289
REMARK  120  A    between atoms: _288  and  _291
REMARK  121  A    between atoms: _291  and  _292
REMARK  122  A    between atoms: _292  and  _293
REMARK  123  A    between atoms: _298  and  _300
REMARK  124  A    between atoms: _300  and  _301
REMARK  125  A    between atoms: _300  and  _303
REMARK  126  A    between atoms: _303  and  _304
REMARK  127  A    between atoms: _306  and  _308
REMARK  128  A    between atoms: _308  and  _309
REMARK  129  A    between atoms: _311  and  _313
REMARK  130  A    between atoms: _313  and  _314
REMARK  131  A    between atoms: _313  and  _316
REMARK  132  A    between atoms: _316  and  _317
REMARK  133  A    between atoms: _322  and  _324
REMARK  134  A    between atoms: _324  and  _325
REMARK  135  A    between atoms: _327  and  _329
REMARK  136  A    between atoms: _329  and  _330
REMARK  137  A    between atoms: _329  and  _332
REMARK  138  A    between atoms: _332  and  _333
REMARK  139  A    between atoms: _339  and  _341
REMARK  140  A    between atoms: _341  and  _342
REMARK  141  A    between atoms: _341  and  _344
REMARK  142  A    between atoms: _344  and  _345
REMARK  143  A    between atoms: _348  and  _350
REMARK  144  A    between atoms: _350  and  _351
REMARK  145  A    between atoms: _350  and  _353
REMARK  146  A    between atoms: _353  and  _354
REMARK  147  A    between atoms: _354  and  _355
REMARK  148  A    between atoms: _358  and  _360
REMARK  149  A    between atoms: _360  and  _361
REMARK  150  A    between atoms: _360  and  _363
REMARK  151  A    between atoms: _363  and  _364
REMARK  152  A    between atoms: _367  and  _369
REMARK  153  A    between atoms: _369  and  _370
REMARK  154  A    between atoms: _369  and  _372
REMARK  155  A    between atoms: _375  and  _377
REMARK  156  A    between atoms: _377  and  _378
REMARK  157  A    between atoms: _377  and  _380
REMARK  158  A    between atoms: _380  and  _381
REMARK  159  A    between atoms: _384  and  _386
REMARK  160  A    between atoms: _386  and  _387
REMARK  161  A    between atoms: _386  and  _389
REMARK  162  A    between atoms: _389  and  _390
REMARK  163  A    between atoms: _395  and  _397
REMARK  164  A    between atoms: _397  and  _398
REMARK  165  A    between atoms: _400  and  _402
REMARK  166  A    between atoms: _402  and  _403
REMARK  167  A    between atoms: _402  and  _405
REMARK  168  A    between atoms: _405  and  _406
REMARK  169  A    between atoms: _406  and  _407
REMARK  170  A    between atoms: _409  and  _411
REMARK  171  A    between atoms: _411  and  _412
REMARK  172  A    between atoms: _411  and  _414
REMARK  173  A    between atoms: _417  and  _419
REMARK  174  A    between atoms: _419  and  _420
REMARK  175  A    between atoms: _419  and  _422
REMARK  176  A    between atoms: _422  and  _423
REMARK  177  A    between atoms: _425  and  _427
REMARK  178  A    between atoms: _427  and  _428
REMARK  179  A    between atoms: _427  and  _430
REMARK  180  A    between atoms: _430  and  _431
REMARK  181  A    between atoms: _433  and  _435
REMARK  182  A    between atoms: _435  and  _436
REMARK  183  A    between atoms: _435  and  _438
REMARK  184  A    between atoms: _438  and  _439
REMARK  185  A    between atoms: _439  and  _440
REMARK  186  A    between atoms: _445  and  _447
REMARK  187  A    between atoms: _447  and  _448
REMARK  188  A    between atoms: _451  and  _453
REMARK  189  A    between atoms: _453  and  _454
REMARK  190  A    between atoms: _453  and  _456
REMARK  191  A    between atoms: _456  and  _457
REMARK  192  A    between atoms: _457  and  _458
REMARK  193  A    between atoms: _460  and  _462
REMARK  194  A    between atoms: _462  and  _463
REMARK  195  A    between atoms: _462  and  _465
REMARK  196  A    between atoms: _465  and  _466
REMARK  197  A    between atoms: _471  and  _472
REMARK  198  A    between atoms: _474  and  _476
REMARK  199  A    between atoms: _476  and  _477
REMARK  200  A    between atoms: _476  and  _479
REMARK  201  A    between atoms: _479  and  _480
REMARK  202  A    between atoms: _483  and  _485
REMARK  203  A    between atoms: _485  and  _486
REMARK  204  A    between atoms: _485  and  _488
REMARK  205  A    between atoms: _488  and  _489
REMARK  206  A    between atoms: _491  and  _493
REMARK  207  A    between atoms: _493  and  _494
REMARK  208  A    between atoms: _493  and  _496
REMARK  209  A    between atoms: _496  and  _497
REMARK  210  A    between atoms: _500  and  _502
REMARK  211  A    between atoms: _502  and  _503
REMARK  212  A    between atoms: _502  and  _505
REMARK  213  A    between atoms: _505  and  _506
REMARK  214  A    between atoms: _506  and  _507
REMARK  215  A    between atoms: _509  and  _511
REMARK  216  A    between atoms: _511  and  _512
REMARK  217  A    between atoms: _511  and  _514
REMARK  218  A    between atoms: _514  and  _515
REMARK  219  A    between atoms: _520  and  _521
REMARK  220  A    between atoms: _523  and  _525
REMARK  221  A    between atoms: _525  and  _526
REMARK  222  A    between atoms: _525  and  _528
REMARK  223  A    between atoms: _528  and  _529
REMARK  224  A    between atoms: _529  and  _530
REMARK  225  A    between atoms: _530  and  _531
REMARK  226  A    between atoms: _540  and  _542
REMARK  227  A    between atoms: _542  and  _543
REMARK  228  A    between atoms: _542  and  _545
REMARK  229  A    between atoms: _545  and  _546
REMARK  230  A    between atoms: _548  and  _550
REMARK  231  A    between atoms: _550  and  _551
REMARK  232  A    between atoms: _550  and  _553
REMARK  233  A    between atoms: _553  and  _554
REMARK  234  A    between atoms: _559  and  _560
REMARK  235  A    between atoms: _562  and  _564
REMARK  236  A    between atoms: _564  and  _565
REMARK  237  A    between atoms: _568  and  _570
REMARK  238  A    between atoms: _570  and  _571
REMARK  239  A    between atoms: _574  and  _576
REMARK  240  A    between atoms: _576  and  _577
REMARK  241  A    between atoms: _576  and  _579
REMARK  242  A    between atoms: _579  and  _580
REMARK  243  A    between atoms: _580  and  _581
REMARK  244  A    between atoms: _581  and  _582
REMARK  245  A    between atoms: _591  and  _593
REMARK  246  A    between atoms: _593  and  _594
REMARK  247  A    between atoms: _593  and  _596
REMARK  248  A    between atoms: _599  and  _601
REMARK  249  A    between atoms: _601  and  _602
REMARK  250  A    between atoms: _604  and  _606
REMARK  251  A    between atoms: _606  and  _607
REMARK  252  A    between atoms: _606  and  _609
REMARK  253  A    between atoms: _609  and  _610
REMARK  254  A    between atoms: _613  and  _615
REMARK  255  A    between atoms: _615  and  _616
REMARK  256  A    between atoms: _619  and  _621
REMARK  257  A    between atoms: _621  and  _622
REMARK  258  A    between atoms: _621  and  _624
REMARK  259  A    between atoms: _624  and  _625
REMARK  260  A    between atoms: _628  and  _630
REMARK  261  A    between atoms: _630  and  _631
REMARK  262  A    between atoms: _630  and  _633
REMARK  263  A    between atoms: _633  and  _634
REMARK  264  A    between atoms: _639  and  _640
REMARK  265  A    between atoms: _642  and  _644
REMARK  266  A    between atoms: _644  and  _645
REMARK  267  A    between atoms: _644  and  _647
REMARK  268  A    between atoms: _647  and  _648
REMARK  269  A    between atoms: _648  and  _649
REMARK  270  A    between atoms: _651  and  _653
REMARK  271  A    between atoms: _653  and  _654
REMARK  272  A    between atoms: _653  and  _656
REMARK  273  A    between atoms: _656  and  _657
REMARK  274  A    between atoms: _657  and  _658
REMARK  275  A    between atoms: _661  and  _663
REMARK  276  A    between atoms: _663  and  _664
REMARK  277  A    between atoms: _663  and  _666
REMARK  278  A    between atoms: _666  and  _667
REMARK  279  A    between atoms: _673  and  _675
REMARK  280  A    between atoms: _675  and  _676
REMARK  281  A    between atoms: _675  and  _678
REMARK  282  A    between atoms: _678  and  _679
REMARK  283  A    between atoms: _684  and  _686
REMARK  284  A    between atoms: _686  and  _687
REMARK  285  A    between atoms: _686  and  _689
REMARK  286  A    between atoms: _689  and  _690
REMARK  287  A    between atoms: _700  and  _702
REMARK  288  A    between atoms: _702  and  _703
REMARK  289  A    between atoms: _702  and  _705
REMARK  290  A    between atoms: _708  and  _710
REMARK  291  A    between atoms: _710  and  _711
REMARK  292  A    between atoms: _710  and  _713
REMARK  293  A    between atoms: _713  and  _714
REMARK  294  A    between atoms: _717  and  _719
REMARK  295  A    between atoms: _719  and  _720
REMARK  296  A    between atoms: _719  and  _722
REMARK  297  A    between atoms: _722  and  _723
REMARK  298  A    between atoms: _723  and  _724
REMARK  299  A    between atoms: _726  and  _728
REMARK  300  A    between atoms: _728  and  _729
REMARK  301  A    between atoms: _728  and  _731
REMARK  302  A    between atoms: _731  and  _732
REMARK  303  A    between atoms: _735  and  _737
REMARK  304  A    between atoms: _737  and  _738
REMARK  305  A    between atoms: _737  and  _740
REMARK  306  A    between atoms: _740  and  _741
REMARK  307  A    between atoms: _744  and  _746
REMARK  308  A    between atoms: _746  and  _747
REMARK  309  A    between atoms: _746  and  _749
REMARK  310  A    between atoms: _749  and  _750
REMARK  311  A    between atoms: _753  and  _755
REMARK  312  A    between atoms: _755  and  _756
REMARK  313  A    between atoms: _755  and  _758
REMARK  314  A    between atoms: _758  and  _759
REMARK  315  A    between atoms: _762  and  _764
REMARK  316  A    between atoms: _764  and  _765
REMARK  317  A    between atoms: _767  and  _769
REMARK  318  A    between atoms: _769  and  _770
REMARK  319  A    between atoms: _769  and  _772
REMARK  320  A    between atoms: _772  and  _773
REMARK  321  A    between atoms: _775  and  _777
REMARK  322  A    between atoms: _777  and  _778
REMARK  323  A    between atoms: _777  and  _780
REMARK  324  A    between atoms: _780  and  _781
REMARK  325  A    between atoms: _791  and  _793
REMARK  326  A    between atoms: _793  and  _794
REMARK  327  A    between atoms: _793  and  _796
REMARK  328  A    between atoms: _796  and  _797
REMARK  329  A    between atoms: _799  and  _801
REMARK  330  A    between atoms: _801  and  _802
REMARK  331  A    between atoms: _801  and  _804
REMARK  332  A    between atoms: _804  and  _805
REMARK  333  A    between atoms: _808  and  _810
REMARK  334  A    between atoms: _810  and  _811
REMARK  335  A    between atoms: _814  and  _816
REMARK  336  A    between atoms: _816  and  _817
REMARK  337  A    between atoms: _816  and  _819
REMARK  338  A    between atoms: _819  and  _820
REMARK  339  A    between atoms: _822  and  _824
REMARK  340  A    between atoms: _824  and  _825
REMARK  341  A    between atoms: _824  and  _827
REMARK  342  A    between atoms: _827  and  _828
REMARK  343  A    between atoms: _828  and  _829
REMARK  344  A    between atoms: _832  and  _834
REMARK  345  A    between atoms: _834  and  _835
REMARK  346  A    between atoms: _834  and  _837
REMARK  347  A    between atoms: _837  and  _838
REMARK  348  A    between atoms: _840  and  _842
REMARK  349  A    between atoms: _842  and  _843
REMARK  350  A    between atoms: _842  and  _845
REMARK  351  A    between atoms: _845  and  _846
REMARK  352  A    between atoms: _846  and  _847
REMARK  353  A    between atoms: _852  and  _854
REMARK  354  A    between atoms: _854  and  _855
REMARK  355  A    between atoms: _854  and  _857
REMARK  356  A    between atoms: _857  and  _858
REMARK  357  A    between atoms: _858  and  _859
REMARK  358  A    between atoms: _864  and  _866
REMARK  359  A    between atoms: _866  and  _867
REMARK  360  A    between atoms: _866  and  _869
REMARK  361  A    between atoms: _869  and  _870
REMARK  362  A    between atoms: _873  and  _875
REMARK  363  A    between atoms: _875  and  _876
REMARK  364  A    between atoms: _875  and  _878
REMARK  365  A    between atoms: _878  and  _879
REMARK  366  A    between atoms: _882  and  _884
REMARK  367  A    between atoms: _884  and  _885
REMARK  368  A    between atoms: _884  and  _887
REMARK  369  A    between atoms: _887  and  _888
REMARK  370  A    between atoms: _895  and  _896
REMARK  371  A    between atoms: _901  and  _903
REMARK  372  A    between atoms: _903  and  _904
REMARK  373  A    between atoms: _903  and  _906
REMARK  374  A    between atoms: _906  and  _907
REMARK  375  A    between atoms: _912  and  _913
REMARK  376  A    between atoms: _915  and  _917
REMARK  377  A    between atoms: _917  and  _918
REMARK  378  A    between atoms: _917  and  _920
REMARK  379  A    between atoms: _920  and  _921
REMARK  380  A    between atoms: _926  and  _928
REMARK  381  A    between atoms: _928  and  _929
REMARK  382  A    between atoms: _928  and  _931
REMARK  383  A    between atoms: _931  and  _932
REMARK  384  A    between atoms: _938  and  _940
REMARK  385  A    between atoms: _940  and  _941
REMARK  386  A    between atoms: _940  and  _943
REMARK  387  A    between atoms: _943  and  _944
REMARK  388  A    between atoms: _947  and  _949
REMARK  389  A    between atoms: _949  and  _950
REMARK  390  A    between atoms: _949  and  _952
REMARK  391  A    between atoms: _952  and  _953
REMARK  392  A    between atoms: _958  and  _960
REMARK  393  A    between atoms: _960  and  _961
REMARK  394  A    between atoms: _960  and  _963
REMARK  395  A    between atoms: _963  and  _964
REMARK  396  A    between atoms: _970  and  _972
REMARK  397  A    between atoms: _972  and  _973
REMARK  398  A    between atoms: _972  and  _975
REMARK  399  A    between atoms: _975  and  _976
REMARK  400  A    between atoms: _976  and  _977
REMARK  401  A    between atoms: _979  and  _981
REMARK  402  A    between atoms: _981  and  _982
REMARK  403  A    between atoms: _981  and  _984
REMARK  404  A    between atoms: _984  and  _985
REMARK  405  A    between atoms: _988  and  _990
REMARK  406  A    between atoms: _990  and  _991
REMARK  407  A    between atoms: _990  and  _993
REMARK  408  A    between atoms: _993  and  _994
REMARK  409  A    between atoms: _999  and  _1001
REMARK  410  A    between atoms: _1001  and  _1002
REMARK  411  A    between atoms: _1001  and  _1004
REMARK  412  A    between atoms: _1004  and  _1005
REMARK  413  A    between atoms: _1010  and  _1011
REMARK                            x       y       z     vdW  Elec       q    Type
REMARK                         _______ _______ _______ _____ _____    ______ ____
ROOT
ATOM      1  O   HOH     1      -9.394 -19.959  26.904  0.00  0.00    +0.000 OA
ENDROOT
TORSDOF 0
REMARK  Name = ../refined-set-2016/3drg/3drg_pocket.pdb
REMARK  413 active torsions:
REMARK  status: ('A' for Active; 'I' for Inactive)
REMARK    1  A    between atoms: _1  and  _3
REMARK    2  A    between atoms: _3  and  _4
REMARK    3  A    between atoms: _3  and  _6
REMARK    4  A    between atoms: _6  and  _7
REMARK    5  A    between atoms: _12  and  _13
REMARK    6  A    between atoms: _15  and  _17
REMARK    7  A    between atoms: _17  and  _18
REMARK    8  A    between atoms: _17  and  _20
REMARK    9  A    between atoms: _20  and  _21
REMARK   10  A    between atoms: _21  and  _22
REMARK   11  A    between atoms: _27  and  _29
REMARK   12  A    between atoms: _29  and  _30
REMARK   13  A    between atoms: _29  and  _32
REMARK   14  A    between atoms: _32  and  _33
REMARK   15  A    between atoms: _35  and  _37
REMARK   16  A    between atoms: _37  and  _38
REMARK   17  A    between atoms: _37  and  _40
REMARK   18  A    between atoms: _40  and  _41
REMARK   19  A    between atoms: _44  and  _46
REMARK   20  A    between atoms: _46  and  _47
REMARK   21  A    between atoms: _46  and  _49
REMARK   22  A    between atoms: _49  and  _50
REMARK   23  A    between atoms: _52  and  _54
REMARK   24  A    between atoms: _54  and  _55
REMARK   25  A    between atoms: _54  and  _57
REMARK   26  A    between atoms: _57  and  _58
REMARK   27  A    between atoms: _61  and  _63
REMARK   28  A    between atoms: _63  and  _64
REMARK   29  A    between atoms: _63  and  _66
REMARK   30  A    between atoms: _66  and  _67
REMARK   31  A    between atoms: _69  and  _71
REMARK   32  A    between atoms: _71  and  _72
REMARK   33  A    between atoms: _74  and  _76
REMARK   34  A    between atoms: _76  and  _77
REMARK   35  A    between atoms: _76  and  _79
REMARK   36  A    between atoms: _79  and  _80
REMARK   37  A    between atoms: _82  and  _84
REMARK   38  A    between atoms: _84  and  _85
REMARK   39  A    between atoms: _84  and  _87
REMARK   40  A    between atoms: _87  and  _88
REMARK   41  A    between atoms: _93  and  _95
REMARK   42  A    between atoms: _95  and  _96
REMARK   43  A    between atoms: _95  and  _98
REMARK   44  A    between atoms: _98  and  _99
REMARK   45  A    between atoms: _102  and  _104
REMARK   46  A    between atoms: _104  and  _105
REMARK   47  A    between atoms: _108  and  _110
REMARK   48  A    between atoms: _110  and  _111
REMARK   49  A    between atoms: _110  and  _113
REMARK   50  A    between atoms: _113  and  _114
REMARK   51  A    between atoms: _117  and  _119
REMARK   52  A    between atoms: _119  and  _120
REMARK   53  A    between atoms: _119  and  _122
REMARK   54  A    between atoms: _122  and  _123
REMARK   55  A    between atoms: _129  and  _131
REMARK   56  A    between atoms: _131  and  _132
REMARK   57  A    between atoms: _135  and  _137
REMARK   58  A    between atoms: _137  and  _138
REMARK   59  A    between atoms: _137  and  _140
REMARK   60  A    between atoms: _140  and  _141
REMARK   61  A    between atoms: _144  and  _146
REMARK   62  A    between atoms: _146  and  _147
REMARK   63  A    between atoms: _146  and  _149
REMARK   64  A    between atoms: _149  and  _150
REMARK   65  A    between atoms: _152  and  _154
REMARK   66  A    between atoms: _154  and  _155
REMARK   67  A    between atoms: _157  and  _159
REMARK   68  A    between atoms: _159  and  _160
REMARK   69  A    between atoms: _162  and  _164
REMARK   70  A    between atoms: _164  and  _165
REMARK   71  A    between atoms: _164  and  _167
REMARK   72  A    between atoms: _167  and  _168
REMARK   73  A    between atoms: _168  and  _169
REMARK   74  A    between atoms: _174  and  _176
REMARK   75  A    between atoms: _176  and  _177
REMARK   76  A    between atoms: _176  and  _179
REMARK   77  A    between atoms: _179  and  _180
REMARK   78  A    between atoms: _183  and  _185
REMARK   79  A    between atoms: _185  and  _186
REMARK   80  A    between atoms: _188  and  _190
REMARK   81  A    between atoms: _190  and  _191
REMARK   82  A    between atoms: _190  and  _193
REMARK   83  A    between atoms: _193  and  _194
REMARK   84  A    between atoms: _197  and  _199
REMARK   85  A    between atoms: _199  and  _200
REMARK   86  A    between atoms: _199  and  _202
REMARK   87  A    between atoms: _202  and  _203
REMARK   88  A    between atoms: _209  and  _211
REMARK   89  A    between atoms: _211  and  _212
REMARK   90  A    between atoms: _211  and  _214
REMARK   91  A    between atoms: _214  and  _215
REMARK   92  A    between atoms: _218  and  _220
REMARK   93  A    between atoms: _220  and  _221
REMARK   94  A    between atoms: _220  and  _223
REMARK   95  A    between atoms: _223  and  _224
REMARK   96  A    between atoms: _230  and  _232
REMARK   97  A    between atoms: _232  and  _233
REMARK   98  A    between atoms: _232  and  _235
REMARK   99  A    between atoms: _235  and  _236
REMARK  100  A    between atoms: _242  and  _244
REMARK  101  A    between atoms: _244  and  _245
REMARK  102  A    between atoms: _244  and  _247
REMARK  103  A    between atoms: _247  and  _248
REMARK  104  A    between atoms: _251  and  _253
REMARK  105  A    between atoms: _253  and  _254
REMARK  106  A    between atoms: _253  and  _256
REMARK  107  A    between atoms: _256  and  _257
REMARK  108  A    between atoms: _260  and  _262
REMARK  109  A    between atoms: _262  and  _263
REMARK  110  A    between atoms: _262  and  _265
REMARK  111  A    between atoms: _265  and  _266
REMARK  112  A    between atoms: _266  and  _267
REMARK  113  A    between atoms: _267  and  _268
REMARK  114  A    between atoms: _277  and  _279
REMARK  115  A    between atoms: _279  and  _280
REMARK  116  A    between atoms: _279  and  _282
REMARK  117  A    between atoms: _282  and  _283
REMARK  118  A    between atoms: _286  and  _288
REMARK  119  A    between atoms: _288  and  _289
REMARK  120  A    between atoms: _288  and  _291
REMARK  121  A    between atoms: _291  and  _292
REMARK  122  A    between atoms: _292  and  _293
REMARK  123  A    between atoms: _298  and  _300
REMARK  124  A    between atoms: _300  and  _301
REMARK  125  A    between atoms: _300  and  _303
REMARK  126  A    between atoms: _303  and  _304
REMARK  127  A    between atoms: _306  and  _308
REMARK  128  A    between atoms: _308  and  _309
REMARK  129  A    between atoms: _311  and  _313
REMARK  130  A    between atoms: _313  and  _314
REMARK  131  A    between atoms: _313  and  _316
REMARK  132  A    between atoms: _316  and  _317
REMARK  133  A    between atoms: _322  and  _324
REMARK  134  A    between atoms: _324  and  _325
REMARK  135  A    between atoms: _327  and  _329
REMARK  136  A    between atoms: _329  and  _330
REMARK  137  A    between atoms: _329  and  _332
REMARK  138  A    between atoms: _332  and  _333
REMARK  139  A    between atoms: _339  and  _341
REMARK  140  A    between atoms: _341  and  _342
REMARK  141  A    between atoms: _341  and  _344
REMARK  142  A    between atoms: _344  and  _345
REMARK  143  A    between atoms: _348  and  _350
REMARK  144  A    between atoms: _350  and  _351
REMARK  145  A    between atoms: _350  and  _353
REMARK  146  A    between atoms: _353  and  _354
REMARK  147  A    between atoms: _354  and  _355
REMARK  148  A    between atoms: _358  and  _360
REMARK  149  A    between atoms: _360  and  _361
REMARK  150  A    between atoms: _360  and  _363
REMARK  151  A    between atoms: _363  and  _364
REMARK  152  A    between atoms: _367  and  _369
REMARK  153  A    between atoms: _369  and  _370
REMARK  154  A    between atoms: _369  and  _372
REMARK  155  A    between atoms: _375  and  _377
REMARK  156  A    between atoms: _377  and  _378
REMARK  157  A    between atoms: _377  and  _380
REMARK  158  A    between atoms: _380  and  _381
REMARK  159  A    between atoms: _384  and  _386
REMARK  160  A    between atoms: _386  and  _387
REMARK  161  A    between atoms: _386  and  _389
REMARK  162  A    between atoms: _389  and  _390
REMARK  163  A    between atoms: _395  and  _397
REMARK  164  A    between atoms: _397  and  _398
REMARK  165  A    between atoms: _400  and  _402
REMARK  166  A    between atoms: _402  and  _403
REMARK  167  A    between atoms: _402  and  _405
REMARK  168  A    between atoms: _405  and  _406
REMARK  169  A    between atoms: _406  and  _407
REMARK  170  A    between atoms: _409  and  _411
REMARK  171  A    between atoms: _411  and  _412
REMARK  172  A    between atoms: _411  and  _414
REMARK  173  A    between atoms: _417  and  _419
REMARK  174  A    between atoms: _419  and  _420
REMARK  175  A    between atoms: _419  and  _422
REMARK  176  A    between atoms: _422  and  _423
REMARK  177  A    between atoms: _425  and  _427
REMARK  178  A    between atoms: _427  and  _428
REMARK  179  A    between atoms: _427  and  _430
REMARK  180  A    between atoms: _430  and  _431
REMARK  181  A    between atoms: _433  and  _435
REMARK  182  A    between atoms: _435  and  _436
REMARK  183  A    between atoms: _435  and  _438
REMARK  184  A    between atoms: _438  and  _439
REMARK  185  A    between atoms: _439  and  _440
REMARK  186  A    between atoms: _445  and  _447
REMARK  187  A    between atoms: _447  and  _448
REMARK  188  A    between atoms: _451  and  _453
REMARK  189  A    between atoms: _453  and  _454
REMARK  190  A    between atoms: _453  and  _456
REMARK  191  A    between atoms: _456  and  _457
REMARK  192  A    between atoms: _457  and  _458
REMARK  193  A    between atoms: _460  and  _462
REMARK  194  A    between atoms: _462  and  _463
REMARK  195  A    between atoms: _462  and  _465
REMARK  196  A    between atoms: _465  and  _466
REMARK  197  A    between atoms: _471  and  _472
REMARK  198  A    between atoms: _474  and  _476
REMARK  199  A    between atoms: _476  and  _477
REMARK  200  A    between atoms: _476  and  _479
REMARK  201  A    between atoms: _479  and  _480
REMARK  202  A    between atoms: _483  and  _485
REMARK  203  A    between atoms: _485  and  _486
REMARK  204  A    between atoms: _485  and  _488
REMARK  205  A    between atoms: _488  and  _489
REMARK  206  A    between atoms: _491  and  _493
REMARK  207  A    between atoms: _493  and  _494
REMARK  208  A    between atoms: _493  and  _496
REMARK  209  A    between atoms: _496  and  _497
REMARK  210  A    between atoms: _500  and  _502
REMARK  211  A    between atoms: _502  and  _503
REMARK  212  A    between atoms: _502  and  _505
REMARK  213  A    between atoms: _505  and  _506
REMARK  214  A    between atoms: _506  and  _507
REMARK  215  A    between atoms: _509  and  _511
REMARK  216  A    between atoms: _511  and  _512
REMARK  217  A    between atoms: _511  and  _514
REMARK  218  A    between atoms: _514  and  _515
REMARK  219  A    between atoms: _520  and  _521
REMARK  220  A    between atoms: _523  and  _525
REMARK  221  A    between atoms: _525  and  _526
REMARK  222  A    between atoms: _525  and  _528
REMARK  223  A    between atoms: _528  and  _529
REMARK  224  A    between atoms: _529  and  _530
REMARK  225  A    between atoms: _530  and  _531
REMARK  226  A    between atoms: _540  and  _542
REMARK  227  A    between atoms: _542  and  _543
REMARK  228  A    between atoms: _542  and  _545
REMARK  229  A    between atoms: _545  and  _546
REMARK  230  A    between atoms: _548  and  _550
REMARK  231  A    between atoms: _550  and  _551
REMARK  232  A    between atoms: _550  and  _553
REMARK  233  A    between atoms: _553  and  _554
REMARK  234  A    between atoms: _559  and  _560
REMARK  235  A    between atoms: _562  and  _564
REMARK  236  A    between atoms: _564  and  _565
REMARK  237  A    between atoms: _568  and  _570
REMARK  238  A    between atoms: _570  and  _571
REMARK  239  A    between atoms: _574  and  _576
REMARK  240  A    between atoms: _576  and  _577
REMARK  241  A    between atoms: _576  and  _579
REMARK  242  A    between atoms: _579  and  _580
REMARK  243  A    between atoms: _580  and  _581
REMARK  244  A    between atoms: _581  and  _582
REMARK  245  A    between atoms: _591  and  _593
REMARK  246  A    between atoms: _593  and  _594
REMARK  247  A    between atoms: _593  and  _596
REMARK  248  A    between atoms: _599  and  _601
REMARK  249  A    between atoms: _601  and  _602
REMARK  250  A    between atoms: _604  and  _606
REMARK  251  A    between atoms: _606  and  _607
REMARK  252  A    between atoms: _606  and  _609
REMARK  253  A    between atoms: _609  and  _610
REMARK  254  A    between atoms: _613  and  _615
REMARK  255  A    between atoms: _615  and  _616
REMARK  256  A    between atoms: _619  and  _621
REMARK  257  A    between atoms: _621  and  _622
REMARK  258  A    between atoms: _621  and  _624
REMARK  259  A    between atoms: _624  and  _625
REMARK  260  A    between atoms: _628  and  _630
REMARK  261  A    between atoms: _630  and  _631
REMARK  262  A    between atoms: _630  and  _633
REMARK  263  A    between atoms: _633  and  _634
REMARK  264  A    between atoms: _639  and  _640
REMARK  265  A    between atoms: _642  and  _644
REMARK  266  A    between atoms: _644  and  _645
REMARK  267  A    between atoms: _644  and  _647
REMARK  268  A    between atoms: _647  and  _648
REMARK  269  A    between atoms: _648  and  _649
REMARK  270  A    between atoms: _651  and  _653
REMARK  271  A    between atoms: _653  and  _654
REMARK  272  A    between atoms: _653  and  _656
REMARK  273  A    between atoms: _656  and  _657
REMARK  274  A    between atoms: _657  and  _658
REMARK  275  A    between atoms: _661  and  _663
REMARK  276  A    between atoms: _663  and  _664
REMARK  277  A    between atoms: _663  and  _666
REMARK  278  A    between atoms: _666  and  _667
REMARK  279  A    between atoms: _673  and  _675
REMARK  280  A    between atoms: _675  and  _676
REMARK  281  A    between atoms: _675  and  _678
REMARK  282  A    between atoms: _678  and  _679
REMARK  283  A    between atoms: _684  and  _686
REMARK  284  A    between atoms: _686  and  _687
REMARK  285  A    between atoms: _686  and  _689
REMARK  286  A    between atoms: _689  and  _690
REMARK  287  A    between atoms: _700  and  _702
REMARK  288  A    between atoms: _702  and  _703
REMARK  289  A    between atoms: _702  and  _705
REMARK  290  A    between atoms: _708  and  _710
REMARK  291  A    between atoms: _710  and  _711
REMARK  292  A    between atoms: _710  and  _713
REMARK  293  A    between atoms: _713  and  _714
REMARK  294  A    between atoms: _717  and  _719
REMARK  295  A    between atoms: _719  and  _720
REMARK  296  A    between atoms: _719  and  _722
REMARK  297  A    between atoms: _722  and  _723
REMARK  298  A    between atoms: _723  and  _724
REMARK  299  A    between atoms: _726  and  _728
REMARK  300  A    between atoms: _728  and  _729
REMARK  301  A    between atoms: _728  and  _731
REMARK  302  A    between atoms: _731  and  _732
REMARK  303  A    between atoms: _735  and  _737
REMARK  304  A    between atoms: _737  and  _738
REMARK  305  A    between atoms: _737  and  _740
REMARK  306  A    between atoms: _740  and  _741
REMARK  307  A    between atoms: _744  and  _746
REMARK  308  A    between atoms: _746  and  _747
REMARK  309  A    between atoms: _746  and  _749
REMARK  310  A    between atoms: _749  and  _750
REMARK  311  A    between atoms: _753  and  _755
REMARK  312  A    between atoms: _755  and  _756
REMARK  313  A    between atoms: _755  and  _758
REMARK  314  A    between atoms: _758  and  _759
REMARK  315  A    between atoms: _762  and  _764
REMARK  316  A    between atoms: _764  and  _765
REMARK  317  A    between atoms: _767  and  _769
REMARK  318  A    between atoms: _769  and  _770
REMARK  319  A    between atoms: _769  and  _772
REMARK  320  A    between atoms: _772  and  _773
REMARK  321  A    between atoms: _775  and  _777
REMARK  322  A    between atoms: _777  and  _778
REMARK  323  A    between atoms: _777  and  _780
REMARK  324  A    between atoms: _780  and  _781
REMARK  325  A    between atoms: _791  and  _793
REMARK  326  A    between atoms: _793  and  _794
REMARK  327  A    between atoms: _793  and  _796
REMARK  328  A    between atoms: _796  and  _797
REMARK  329  A    between atoms: _799  and  _801
REMARK  330  A    between atoms: _801  and  _802
REMARK  331  A    between atoms: _801  and  _804
REMARK  332  A    between atoms: _804  and  _805
REMARK  333  A    between atoms: _808  and  _810
REMARK  334  A    between atoms: _810  and  _811
REMARK  335  A    between atoms: _814  and  _816
REMARK  336  A    between atoms: _816  and  _817
REMARK  337  A    between atoms: _816  and  _819
REMARK  338  A    between atoms: _819  and  _820
REMARK  339  A    between atoms: _822  and  _824
REMARK  340  A    between atoms: _824  and  _825
REMARK  341  A    between atoms: _824  and  _827
REMARK  342  A    between atoms: _827  and  _828
REMARK  343  A    between atoms: _828  and  _829
REMARK  344  A    between atoms: _832  and  _834
REMARK  345  A    between atoms: _834  and  _835
REMARK  346  A    between atoms: _834  and  _837
REMARK  347  A    between atoms: _837  and  _838
REMARK  348  A    between atoms: _840  and  _842
REMARK  349  A    between atoms: _842  and  _843
REMARK  350  A    between atoms: _842  and  _845
REMARK  351  A    between atoms: _845  and  _846
REMARK  352  A    between atoms: _846  and  _847
REMARK  353  A    between atoms: _852  and  _854
REMARK  354  A    between atoms: _854  and  _855
REMARK  355  A    between atoms: _854  and  _857
REMARK  356  A    between atoms: _857  and  _858
REMARK  357  A    between atoms: _858  and  _859
REMARK  358  A    between atoms: _864  and  _866
REMARK  359  A    between atoms: _866  and  _867
REMARK  360  A    between atoms: _866  and  _869
REMARK  361  A    between atoms: _869  and  _870
REMARK  362  A    between atoms: _873  and  _875
REMARK  363  A    between atoms: _875  and  _876
REMARK  364  A    between atoms: _875  and  _878
REMARK  365  A    between atoms: _878  and  _879
REMARK  366  A    between atoms: _882  and  _884
REMARK  367  A    between atoms: _884  and  _885
REMARK  368  A    between atoms: _884  and  _887
REMARK  369  A    between atoms: _887  and  _888
REMARK  370  A    between atoms: _895  and  _896
REMARK  371  A    between atoms: _901  and  _903
REMARK  372  A    between atoms: _903  and  _904
REMARK  373  A    between atoms: _903  and  _906
REMARK  374  A    between atoms: _906  and  _907
REMARK  375  A    between atoms: _912  and  _913
REMARK  376  A    between atoms: _915  and  _917
REMARK  377  A    between atoms: _917  and  _918
REMARK  378  A    between atoms: _917  and  _920
REMARK  379  A    between atoms: _920  and  _921
REMARK  380  A    between atoms: _926  and  _928
REMARK  381  A    between atoms: _928  and  _929
REMARK  382  A    between atoms: _928  and  _931
REMARK  383  A    between atoms: _931  and  _932
REMARK  384  A    between atoms: _938  and  _940
REMARK  385  A    between atoms: _940  and  _941
REMARK  386  A    between atoms: _940  and  _943
REMARK  387  A    between atoms: _943  and  _944
REMARK  388  A    between atoms: _947  and  _949
REMARK  389  A    between atoms: _949  and  _950
REMARK  390  A    between atoms: _949  and  _952
REMARK  391  A    between atoms: _952  and  _953
REMARK  392  A    between atoms: _958  and  _960
REMARK  393  A    between atoms: _960  and  _961
REMARK  394  A    between atoms: _960  and  _963
REMARK  395  A    between atoms: _963  and  _964
REMARK  396  A    between atoms: _970  and  _972
REMARK  397  A    between atoms: _972  and  _973
REMARK  398  A    between atoms: _972  and  _975
REMARK  399  A    between atoms: _975  and  _976
REMARK  400  A    between atoms: _976  and  _977
REMARK  401  A    between atoms: _979  and  _981
REMARK  402  A    between atoms: _981  and  _982
REMARK  403  A    between atoms: _981  and  _984
REMARK  404  A    between atoms: _984  and  _985
REMARK  405  A    between atoms: _988  and  _990
REMARK  406  A    between atoms: _990  and  _991
REMARK  407  A    between atoms: _990  and  _993
REMARK  408  A    between atoms: _993  and  _994
REMARK  409  A    between atoms: _999  and  _1001
REMARK  410  A    between atoms: _1001  and  _1002
REMARK  411  A    between atoms: _1001  and  _1004
REMARK  412  A    between atoms: _1004  and  _1005
REMARK  413  A    between atoms: _1010  and  _1011
REMARK                            x       y       z     vdW  Elec       q    Type
REMARK                         _______ _______ _______ _____ _____    ______ ____
ROOT
ATOM      1  O   HOH     1     -13.592 -29.548  22.263  0.00  0.00    +0.000 OA
ENDROOT
TORSDOF 0
REMARK  Name = ../refined-set-2016/3drg/3drg_pocket.pdb
REMARK  413 active torsions:
REMARK  status: ('A' for Active; 'I' for Inactive)
REMARK    1  A    between atoms: _1  and  _3
REMARK    2  A    between atoms: _3  and  _4
REMARK    3  A    between atoms: _3  and  _6
REMARK    4  A    between atoms: _6  and  _7
REMARK    5  A    between atoms: _12  and  _13
REMARK    6  A    between atoms: _15  and  _17
REMARK    7  A    between atoms: _17  and  _18
REMARK    8  A    between atoms: _17  and  _20
REMARK    9  A    between atoms: _20  and  _21
REMARK   10  A    between atoms: _21  and  _22
REMARK   11  A    between atoms: _27  and  _29
REMARK   12  A    between atoms: _29  and  _30
REMARK   13  A    between atoms: _29  and  _32
REMARK   14  A    between atoms: _32  and  _33
REMARK   15  A    between atoms: _35  and  _37
REMARK   16  A    between atoms: _37  and  _38
REMARK   17  A    between atoms: _37  and  _40
REMARK   18  A    between atoms: _40  and  _41
REMARK   19  A    between atoms: _44  and  _46
REMARK   20  A    between atoms: _46  and  _47
REMARK   21  A    between atoms: _46  and  _49
REMARK   22  A    between atoms: _49  and  _50
REMARK   23  A    between atoms: _52  and  _54
REMARK   24  A    between atoms: _54  and  _55
REMARK   25  A    between atoms: _54  and  _57
REMARK   26  A    between atoms: _57  and  _58
REMARK   27  A    between atoms: _61  and  _63
REMARK   28  A    between atoms: _63  and  _64
REMARK   29  A    between atoms: _63  and  _66
REMARK   30  A    between atoms: _66  and  _67
REMARK   31  A    between atoms: _69  and  _71
REMARK   32  A    between atoms: _71  and  _72
REMARK   33  A    between atoms: _74  and  _76
REMARK   34  A    between atoms: _76  and  _77
REMARK   35  A    between atoms: _76  and  _79
REMARK   36  A    between atoms: _79  and  _80
REMARK   37  A    between atoms: _82  and  _84
REMARK   38  A    between atoms: _84  and  _85
REMARK   39  A    between atoms: _84  and  _87
REMARK   40  A    between atoms: _87  and  _88
REMARK   41  A    between atoms: _93  and  _95
REMARK   42  A    between atoms: _95  and  _96
REMARK   43  A    between atoms: _95  and  _98
REMARK   44  A    between atoms: _98  and  _99
REMARK   45  A    between atoms: _102  and  _104
REMARK   46  A    between atoms: _104  and  _105
REMARK   47  A    between atoms: _108  and  _110
REMARK   48  A    between atoms: _110  and  _111
REMARK   49  A    between atoms: _110  and  _113
REMARK   50  A    between atoms: _113  and  _114
REMARK   51  A    between atoms: _117  and  _119
REMARK   52  A    between atoms: _119  and  _120
REMARK   53  A    between atoms: _119  and  _122
REMARK   54  A    between atoms: _122  and  _123
REMARK   55  A    between atoms: _129  and  _131
REMARK   56  A    between atoms: _131  and  _132
REMARK   57  A    between atoms: _135  and  _137
REMARK   58  A    between atoms: _137  and  _138
REMARK   59  A    between atoms: _137  and  _140
REMARK   60  A    between atoms: _140  and  _141
REMARK   61  A    between atoms: _144  and  _146
REMARK   62  A    between atoms: _146  and  _147
REMARK   63  A    between atoms: _146  and  _149
REMARK   64  A    between atoms: _149  and  _150
REMARK   65  A    between atoms: _152  and  _154
REMARK   66  A    between atoms: _154  and  _155
REMARK   67  A    between atoms: _157  and  _159
REMARK   68  A    between atoms: _159  and  _160
REMARK   69  A    between atoms: _162  and  _164
REMARK   70  A    between atoms: _164  and  _165
REMARK   71  A    between atoms: _164  and  _167
REMARK   72  A    between atoms: _167  and  _168
REMARK   73  A    between atoms: _168  and  _169
REMARK   74  A    between atoms: _174  and  _176
REMARK   75  A    between atoms: _176  and  _177
REMARK   76  A    between atoms: _176  and  _179
REMARK   77  A    between atoms: _179  and  _180
REMARK   78  A    between atoms: _183  and  _185
REMARK   79  A    between atoms: _185  and  _186
REMARK   80  A    between atoms: _188  and  _190
REMARK   81  A    between atoms: _190  and  _191
REMARK   82  A    between atoms: _190  and  _193
REMARK   83  A    between atoms: _193  and  _194
REMARK   84  A    between atoms: _197  and  _199
REMARK   85  A    between atoms: _199  and  _200
REMARK   86  A    between atoms: _199  and  _202
REMARK   87  A    between atoms: _202  and  _203
REMARK   88  A    between atoms: _209  and  _211
REMARK   89  A    between atoms: _211  and  _212
REMARK   90  A    between atoms: _211  and  _214
REMARK   91  A    between atoms: _214  and  _215
REMARK   92  A    between atoms: _218  and  _220
REMARK   93  A    between atoms: _220  and  _221
REMARK   94  A    between atoms: _220  and  _223
REMARK   95  A    between atoms: _223  and  _224
REMARK   96  A    between atoms: _230  and  _232
REMARK   97  A    between atoms: _232  and  _233
REMARK   98  A    between atoms: _232  and  _235
REMARK   99  A    between atoms: _235  and  _236
REMARK  100  A    between atoms: _242  and  _244
REMARK  101  A    between atoms: _244  and  _245
REMARK  102  A    between atoms: _244  and  _247
REMARK  103  A    between atoms: _247  and  _248
REMARK  104  A    between atoms: _251  and  _253
REMARK  105  A    between atoms: _253  and  _254
REMARK  106  A    between atoms: _253  and  _256
REMARK  107  A    between atoms: _256  and  _257
REMARK  108  A    between atoms: _260  and  _262
REMARK  109  A    between atoms: _262  and  _263
REMARK  110  A    between atoms: _262  and  _265
REMARK  111  A    between atoms: _265  and  _266
REMARK  112  A    between atoms: _266  and  _267
REMARK  113  A    between atoms: _267  and  _268
REMARK  114  A    between atoms: _277  and  _279
REMARK  115  A    between atoms: _279  and  _280
REMARK  116  A    between atoms: _279  and  _282
REMARK  117  A    between atoms: _282  and  _283
REMARK  118  A    between atoms: _286  and  _288
REMARK  119  A    between atoms: _288  and  _289
REMARK  120  A    between atoms: _288  and  _291
REMARK  121  A    between atoms: _291  and  _292
REMARK  122  A    between atoms: _292  and  _293
REMARK  123  A    between atoms: _298  and  _300
REMARK  124  A    between atoms: _300  and  _301
REMARK  125  A    between atoms: _300  and  _303
REMARK  126  A    between atoms: _303  and  _304
REMARK  127  A    between atoms: _306  and  _308
REMARK  128  A    between atoms: _308  and  _309
REMARK  129  A    between atoms: _311  and  _313
REMARK  130  A    between atoms: _313  and  _314
REMARK  131  A    between atoms: _313  and  _316
REMARK  132  A    between atoms: _316  and  _317
REMARK  133  A    between atoms: _322  and  _324
REMARK  134  A    between atoms: _324  and  _325
REMARK  135  A    between atoms: _327  and  _329
REMARK  136  A    between atoms: _329  and  _330
REMARK  137  A    between atoms: _329  and  _332
REMARK  138  A    between atoms: _332  and  _333
REMARK  139  A    between atoms: _339  and  _341
REMARK  140  A    between atoms: _341  and  _342
REMARK  141  A    between atoms: _341  and  _344
REMARK  142  A    between atoms: _344  and  _345
REMARK  143  A    between atoms: _348  and  _350
REMARK  144  A    between atoms: _350  and  _351
REMARK  145  A    between atoms: _350  and  _353
REMARK  146  A    between atoms: _353  and  _354
REMARK  147  A    between atoms: _354  and  _355
REMARK  148  A    between atoms: _358  and  _360
REMARK  149  A    between atoms: _360  and  _361
REMARK  150  A    between atoms: _360  and  _363
REMARK  151  A    between atoms: _363  and  _364
REMARK  152  A    between atoms: _367  and  _369
REMARK  153  A    between atoms: _369  and  _370
REMARK  154  A    between atoms: _369  and  _372
REMARK  155  A    between atoms: _375  and  _377
REMARK  156  A    between atoms: _377  and  _378
REMARK  157  A    between atoms: _377  and  _380
REMARK  158  A    between atoms: _380  and  _381
REMARK  159  A    between atoms: _384  and  _386
REMARK  160  A    between atoms: _386  and  _387
REMARK  161  A    between atoms: _386  and  _389
REMARK  162  A    between atoms: _389  and  _390
REMARK  163  A    between atoms: _395  and  _397
REMARK  164  A    between atoms: _397  and  _398
REMARK  165  A    between atoms: _400  and  _402
REMARK  166  A    between atoms: _402  and  _403
REMARK  167  A    between atoms: _402  and  _405
REMARK  168  A    between atoms: _405  and  _406
REMARK  169  A    between atoms: _406  and  _407
REMARK  170  A    between atoms: _409  and  _411
REMARK  171  A    between atoms: _411  and  _412
REMARK  172  A    between atoms: _411  and  _414
REMARK  173  A    between atoms: _417  and  _419
REMARK  174  A    between atoms: _419  and  _420
REMARK  175  A    between atoms: _419  and  _422
REMARK  176  A    between atoms: _422  and  _423
REMARK  177  A    between atoms: _425  and  _427
REMARK  178  A    between atoms: _427  and  _428
REMARK  179  A    between atoms: _427  and  _430
REMARK  180  A    between atoms: _430  and  _431
REMARK  181  A    between atoms: _433  and  _435
REMARK  182  A    between atoms: _435  and  _436
REMARK  183  A    between atoms: _435  and  _438
REMARK  184  A    between atoms: _438  and  _439
REMARK  185  A    between atoms: _439  and  _440
REMARK  186  A    between atoms: _445  and  _447
REMARK  187  A    between atoms: _447  and  _448
REMARK  188  A    between atoms: _451  and  _453
REMARK  189  A    between atoms: _453  and  _454
REMARK  190  A    between atoms: _453  and  _456
REMARK  191  A    between atoms: _456  and  _457
REMARK  192  A    between atoms: _457  and  _458
REMARK  193  A    between atoms: _460  and  _462
REMARK  194  A    between atoms: _462  and  _463
REMARK  195  A    between atoms: _462  and  _465
REMARK  196  A    between atoms: _465  and  _466
REMARK  197  A    between atoms: _471  and  _472
REMARK  198  A    between atoms: _474  and  _476
REMARK  199  A    between atoms: _476  and  _477
REMARK  200  A    between atoms: _476  and  _479
REMARK  201  A    between atoms: _479  and  _480
REMARK  202  A    between atoms: _483  and  _485
REMARK  203  A    between atoms: _485  and  _486
REMARK  204  A    between atoms: _485  and  _488
REMARK  205  A    between atoms: _488  and  _489
REMARK  206  A    between atoms: _491  and  _493
REMARK  207  A    between atoms: _493  and  _494
REMARK  208  A    between atoms: _493  and  _496
REMARK  209  A    between atoms: _496  and  _497
REMARK  210  A    between atoms: _500  and  _502
REMARK  211  A    between atoms: _502  and  _503
REMARK  212  A    between atoms: _502  and  _505
REMARK  213  A    between atoms: _505  and  _506
REMARK  214  A    between atoms: _506  and  _507
REMARK  215  A    between atoms: _509  and  _511
REMARK  216  A    between atoms: _511  and  _512
REMARK  217  A    between atoms: _511  and  _514
REMARK  218  A    between atoms: _514  and  _515
REMARK  219  A    between atoms: _520  and  _521
REMARK  220  A    between atoms: _523  and  _525
REMARK  221  A    between atoms: _525  and  _526
REMARK  222  A    between atoms: _525  and  _528
REMARK  223  A    between atoms: _528  and  _529
REMARK  224  A    between atoms: _529  and  _530
REMARK  225  A    between atoms: _530  and  _531
REMARK  226  A    between atoms: _540  and  _542
REMARK  227  A    between atoms: _542  and  _543
REMARK  228  A    between atoms: _542  and  _545
REMARK  229  A    between atoms: _545  and  _546
REMARK  230  A    between atoms: _548  and  _550
REMARK  231  A    between atoms: _550  and  _551
REMARK  232  A    between atoms: _550  and  _553
REMARK  233  A    between atoms: _553  and  _554
REMARK  234  A    between atoms: _559  and  _560
REMARK  235  A    between atoms: _562  and  _564
REMARK  236  A    between atoms: _564  and  _565
REMARK  237  A    between atoms: _568  and  _570
REMARK  238  A    between atoms: _570  and  _571
REMARK  239  A    between atoms: _574  and  _576
REMARK  240  A    between atoms: _576  and  _577
REMARK  241  A    between atoms: _576  and  _579
REMARK  242  A    between atoms: _579  and  _580
REMARK  243  A    between atoms: _580  and  _581
REMARK  244  A    between atoms: _581  and  _582
REMARK  245  A    between atoms: _591  and  _593
REMARK  246  A    between atoms: _593  and  _594
REMARK  247  A    between atoms: _593  and  _596
REMARK  248  A    between atoms: _599  and  _601
REMARK  249  A    between atoms: _601  and  _602
REMARK  250  A    between atoms: _604  and  _606
REMARK  251  A    between atoms: _606  and  _607
REMARK  252  A    between atoms: _606  and  _609
REMARK  253  A    between atoms: _609  and  _610
REMARK  254  A    between atoms: _613  and  _615
REMARK  255  A    between atoms: _615  and  _616
REMARK  256  A    between atoms: _619  and  _621
REMARK  257  A    between atoms: _621  and  _622
REMARK  258  A    between atoms: _621  and  _624
REMARK  259  A    between atoms: _624  and  _625
REMARK  260  A    between atoms: _628  and  _630
REMARK  261  A    between atoms: _630  and  _631
REMARK  262  A    between atoms: _630  and  _633
REMARK  263  A    between atoms: _633  and  _634
REMARK  264  A    between atoms: _639  and  _640
REMARK  265  A    between atoms: _642  and  _644
REMARK  266  A    between atoms: _644  and  _645
REMARK  267  A    between atoms: _644  and  _647
REMARK  268  A    between atoms: _647  and  _648
REMARK  269  A    between atoms: _648  and  _649
REMARK  270  A    between atoms: _651  and  _653
REMARK  271  A    between atoms: _653  and  _654
REMARK  272  A    between atoms: _653  and  _656
REMARK  273  A    between atoms: _656  and  _657
REMARK  274  A    between atoms: _657  and  _658
REMARK  275  A    between atoms: _661  and  _663
REMARK  276  A    between atoms: _663  and  _664
REMARK  277  A    between atoms: _663  and  _666
REMARK  278  A    between atoms: _666  and  _667
REMARK  279  A    between atoms: _673  and  _675
REMARK  280  A    between atoms: _675  and  _676
REMARK  281  A    between atoms: _675  and  _678
REMARK  282  A    between atoms: _678  and  _679
REMARK  283  A    between atoms: _684  and  _686
REMARK  284  A    between atoms: _686  and  _687
REMARK  285  A    between atoms: _686  and  _689
REMARK  286  A    between atoms: _689  and  _690
REMARK  287  A    between atoms: _700  and  _702
REMARK  288  A    between atoms: _702  and  _703
REMARK  289  A    between atoms: _702  and  _705
REMARK  290  A    between atoms: _708  and  _710
REMARK  291  A    between atoms: _710  and  _711
REMARK  292  A    between atoms: _710  and  _713
REMARK  293  A    between atoms: _713  and  _714
REMARK  294  A    between atoms: _717  and  _719
REMARK  295  A    between atoms: _719  and  _720
REMARK  296  A    between atoms: _719  and  _722
REMARK  297  A    between atoms: _722  and  _723
REMARK  298  A    between atoms: _723  and  _724
REMARK  299  A    between atoms: _726  and  _728
REMARK  300  A    between atoms: _728  and  _729
REMARK  301  A    between atoms: _728  and  _731
REMARK  302  A    between atoms: _731  and  _732
REMARK  303  A    between atoms: _735  and  _737
REMARK  304  A    between atoms: _737  and  _738
REMARK  305  A    between atoms: _737  and  _740
REMARK  306  A    between atoms: _740  and  _741
REMARK  307  A    between atoms: _744  and  _746
REMARK  308  A    between atoms: _746  and  _747
REMARK  309  A    between atoms: _746  and  _749
REMARK  310  A    between atoms: _749  and  _750
REMARK  311  A    between atoms: _753  and  _755
REMARK  312  A    between atoms: _755  and  _756
REMARK  313  A    between atoms: _755  and  _758
REMARK  314  A    between atoms: _758  and  _759
REMARK  315  A    between atoms: _762  and  _764
REMARK  316  A    between atoms: _764  and  _765
REMARK  317  A    between atoms: _767  and  _769
REMARK  318  A    between atoms: _769  and  _770
REMARK  319  A    between atoms: _769  and  _772
REMARK  320  A    between atoms: _772  and  _773
REMARK  321  A    between atoms: _775  and  _777
REMARK  322  A    between atoms: _777  and  _778
REMARK  323  A    between atoms: _777  and  _780
REMARK  324  A    between atoms: _780  and  _781
REMARK  325  A    between atoms: _791  and  _793
REMARK  326  A    between atoms: _793  and  _794
REMARK  327  A    between atoms: _793  and  _796
REMARK  328  A    between atoms: _796  and  _797
REMARK  329  A    between atoms: _799  and  _801
REMARK  330  A    between atoms: _801  and  _802
REMARK  331  A    between atoms: _801  and  _804
REMARK  332  A    between atoms: _804  and  _805
REMARK  333  A    between atoms: _808  and  _810
REMARK  334  A    between atoms: _810  and  _811
REMARK  335  A    between atoms: _814  and  _816
REMARK  336  A    between atoms: _816  and  _817
REMARK  337  A    between atoms: _816  and  _819
REMARK  338  A    between atoms: _819  and  _820
REMARK  339  A    between atoms: _822  and  _824
REMARK  340  A    between atoms: _824  and  _825
REMARK  341  A    between atoms: _824  and  _827
REMARK  342  A    between atoms: _827  and  _828
REMARK  343  A    between atoms: _828  and  _829
REMARK  344  A    between atoms: _832  and  _834
REMARK  345  A    between atoms: _834  and  _835
REMARK  346  A    between atoms: _834  and  _837
REMARK  347  A    between atoms: _837  and  _838
REMARK  348  A    between atoms: _840  and  _842
REMARK  349  A    between atoms: _842  and  _843
REMARK  350  A    between atoms: _842  and  _845
REMARK  351  A    between atoms: _845  and  _846
REMARK  352  A    between atoms: _846  and  _847
REMARK  353  A    between atoms: _852  and  _854
REMARK  354  A    between atoms: _854  and  _855
REMARK  355  A    between atoms: _854  and  _857
REMARK  356  A    between atoms: _857  and  _858
REMARK  357  A    between atoms: _858  and  _859
REMARK  358  A    between atoms: _864  and  _866
REMARK  359  A    between atoms: _866  and  _867
REMARK  360  A    between atoms: _866  and  _869
REMARK  361  A    between atoms: _869  and  _870
REMARK  362  A    between atoms: _873  and  _875
REMARK  363  A    between atoms: _875  and  _876
REMARK  364  A    between atoms: _875  and  _878
REMARK  365  A    between atoms: _878  and  _879
REMARK  366  A    between atoms: _882  and  _884
REMARK  367  A    between atoms: _884  and  _885
REMARK  368  A    between atoms: _884  and  _887
REMARK  369  A    between atoms: _887  and  _888
REMARK  370  A    between atoms: _895  and  _896
REMARK  371  A    between atoms: _901  and  _903
REMARK  372  A    between atoms: _903  and  _904
REMARK  373  A    between atoms: _903  and  _906
REMARK  374  A    between atoms: _906  and  _907
REMARK  375  A    between atoms: _912  and  _913
REMARK  376  A    between atoms: _915  and  _917
REMARK  377  A    between atoms: _917  and  _918
REMARK  378  A    between atoms: _917  and  _920
REMARK  379  A    between atoms: _920  and  _921
REMARK  380  A    between atoms: _926  and  _928
REMARK  381  A    between atoms: _928  and  _929
REMARK  382  A    between atoms: _928  and  _931
REMARK  383  A    between atoms: _931  and  _932
REMARK  384  A    between atoms: _938  and  _940
REMARK  385  A    between atoms: _940  and  _941
REMARK  386  A    between atoms: _940  and  _943
REMARK  387  A    between atoms: _943  and  _944
REMARK  388  A    between atoms: _947  and  _949
REMARK  389  A    between atoms: _949  and  _950
REMARK  390  A    between atoms: _949  and  _952
REMARK  391  A    between atoms: _952  and  _953
REMARK  392  A    between atoms: _958  and  _960
REMARK  393  A    between atoms: _960  and  _961
REMARK  394  A    between atoms: _960  and  _963
REMARK  395  A    between atoms: _963  and  _964
REMARK  396  A    between atoms: _970  and  _972
REMARK  397  A    between atoms: _972  and  _973
REMARK  398  A    between atoms: _972  and  _975
REMARK  399  A    between atoms: _975  and  _976
REMARK  400  A    between atoms: _976  and  _977
REMARK  401  A    between atoms: _979  and  _981
REMARK  402  A    between atoms: _981  and  _982
REMARK  403  A    between atoms: _981  and  _984
REMARK  404  A    between atoms: _984  and  _985
REMARK  405  A    between atoms: _988  and  _990
REMARK  406  A    between atoms: _990  and  _991
REMARK  407  A    between atoms: _990  and  _993
REMARK  408  A    between atoms: _993  and  _994
REMARK  409  A    between atoms: _999  and  _1001
REMARK  410  A    between atoms: _1001  and  _1002
REMARK  411  A    between atoms: _1001  and  _1004
REMARK  412  A    between atoms: _1004  and  _1005
REMARK  413  A    between atoms: _1010  and  _1011
REMARK                            x       y       z     vdW  Elec       q    Type
REMARK                         _______ _______ _______ _____ _____    ______ ____
ROOT
ATOM      1  O   HOH     1     -14.472 -19.914  32.475  0.00  0.00    +0.000 OA
ENDROOT
TORSDOF 0
REMARK  Name = ../refined-set-2016/3drg/3drg_pocket.pdb
REMARK  413 active torsions:
REMARK  status: ('A' for Active; 'I' for Inactive)
REMARK    1  A    between atoms: _1  and  _3
REMARK    2  A    between atoms: _3  and  _4
REMARK    3  A    between atoms: _3  and  _6
REMARK    4  A    between atoms: _6  and  _7
REMARK    5  A    between atoms: _12  and  _13
REMARK    6  A    between atoms: _15  and  _17
REMARK    7  A    between atoms: _17  and  _18
REMARK    8  A    between atoms: _17  and  _20
REMARK    9  A    between atoms: _20  and  _21
REMARK   10  A    between atoms: _21  and  _22
REMARK   11  A    between atoms: _27  and  _29
REMARK   12  A    between atoms: _29  and  _30
REMARK   13  A    between atoms: _29  and  _32
REMARK   14  A    between atoms: _32  and  _33
REMARK   15  A    between atoms: _35  and  _37
REMARK   16  A    between atoms: _37  and  _38
REMARK   17  A    between atoms: _37  and  _40
REMARK   18  A    between atoms: _40  and  _41
REMARK   19  A    between atoms: _44  and  _46
REMARK   20  A    between atoms: _46  and  _47
REMARK   21  A    between atoms: _46  and  _49
REMARK   22  A    between atoms: _49  and  _50
REMARK   23  A    between atoms: _52  and  _54
REMARK   24  A    between atoms: _54  and  _55
REMARK   25  A    between atoms: _54  and  _57
REMARK   26  A    between atoms: _57  and  _58
REMARK   27  A    between atoms: _61  and  _63
REMARK   28  A    between atoms: _63  and  _64
REMARK   29  A    between atoms: _63  and  _66
REMARK   30  A    between atoms: _66  and  _67
REMARK   31  A    between atoms: _69  and  _71
REMARK   32  A    between atoms: _71  and  _72
REMARK   33  A    between atoms: _74  and  _76
REMARK   34  A    between atoms: _76  and  _77
REMARK   35  A    between atoms: _76  and  _79
REMARK   36  A    between atoms: _79  and  _80
REMARK   37  A    between atoms: _82  and  _84
REMARK   38  A    between atoms: _84  and  _85
REMARK   39  A    between atoms: _84  and  _87
REMARK   40  A    between atoms: _87  and  _88
REMARK   41  A    between atoms: _93  and  _95
REMARK   42  A    between atoms: _95  and  _96
REMARK   43  A    between atoms: _95  and  _98
REMARK   44  A    between atoms: _98  and  _99
REMARK   45  A    between atoms: _102  and  _104
REMARK   46  A    between atoms: _104  and  _105
REMARK   47  A    between atoms: _108  and  _110
REMARK   48  A    between atoms: _110  and  _111
REMARK   49  A    between atoms: _110  and  _113
REMARK   50  A    between atoms: _113  and  _114
REMARK   51  A    between atoms: _117  and  _119
REMARK   52  A    between atoms: _119  and  _120
REMARK   53  A    between atoms: _119  and  _122
REMARK   54  A    between atoms: _122  and  _123
REMARK   55  A    between atoms: _129  and  _131
REMARK   56  A    between atoms: _131  and  _132
REMARK   57  A    between atoms: _135  and  _137
REMARK   58  A    between atoms: _137  and  _138
REMARK   59  A    between atoms: _137  and  _140
REMARK   60  A    between atoms: _140  and  _141
REMARK   61  A    between atoms: _144  and  _146
REMARK   62  A    between atoms: _146  and  _147
REMARK   63  A    between atoms: _146  and  _149
REMARK   64  A    between atoms: _149  and  _150
REMARK   65  A    between atoms: _152  and  _154
REMARK   66  A    between atoms: _154  and  _155
REMARK   67  A    between atoms: _157  and  _159
REMARK   68  A    between atoms: _159  and  _160
REMARK   69  A    between atoms: _162  and  _164
REMARK   70  A    between atoms: _164  and  _165
REMARK   71  A    between atoms: _164  and  _167
REMARK   72  A    between atoms: _167  and  _168
REMARK   73  A    between atoms: _168  and  _169
REMARK   74  A    between atoms: _174  and  _176
REMARK   75  A    between atoms: _176  and  _177
REMARK   76  A    between atoms: _176  and  _179
REMARK   77  A    between atoms: _179  and  _180
REMARK   78  A    between atoms: _183  and  _185
REMARK   79  A    between atoms: _185  and  _186
REMARK   80  A    between atoms: _188  and  _190
REMARK   81  A    between atoms: _190  and  _191
REMARK   82  A    between atoms: _190  and  _193
REMARK   83  A    between atoms: _193  and  _194
REMARK   84  A    between atoms: _197  and  _199
REMARK   85  A    between atoms: _199  and  _200
REMARK   86  A    between atoms: _199  and  _202
REMARK   87  A    between atoms: _202  and  _203
REMARK   88  A    between atoms: _209  and  _211
REMARK   89  A    between atoms: _211  and  _212
REMARK   90  A    between atoms: _211  and  _214
REMARK   91  A    between atoms: _214  and  _215
REMARK   92  A    between atoms: _218  and  _220
REMARK   93  A    between atoms: _220  and  _221
REMARK   94  A    between atoms: _220  and  _223
REMARK   95  A    between atoms: _223  and  _224
REMARK   96  A    between atoms: _230  and  _232
REMARK   97  A    between atoms: _232  and  _233
REMARK   98  A    between atoms: _232  and  _235
REMARK   99  A    between atoms: _235  and  _236
REMARK  100  A    between atoms: _242  and  _244
REMARK  101  A    between atoms: _244  and  _245
REMARK  102  A    between atoms: _244  and  _247
REMARK  103  A    between atoms: _247  and  _248
REMARK  104  A    between atoms: _251  and  _253
REMARK  105  A    between atoms: _253  and  _254
REMARK  106  A    between atoms: _253  and  _256
REMARK  107  A    between atoms: _256  and  _257
REMARK  108  A    between atoms: _260  and  _262
REMARK  109  A    between atoms: _262  and  _263
REMARK  110  A    between atoms: _262  and  _265
REMARK  111  A    between atoms: _265  and  _266
REMARK  112  A    between atoms: _266  and  _267
REMARK  113  A    between atoms: _267  and  _268
REMARK  114  A    between atoms: _277  and  _279
REMARK  115  A    between atoms: _279  and  _280
REMARK  116  A    between atoms: _279  and  _282
REMARK  117  A    between atoms: _282  and  _283
REMARK  118  A    between atoms: _286  and  _288
REMARK  119  A    between atoms: _288  and  _289
REMARK  120  A    between atoms: _288  and  _291
REMARK  121  A    between atoms: _291  and  _292
REMARK  122  A    between atoms: _292  and  _293
REMARK  123  A    between atoms: _298  and  _300
REMARK  124  A    between atoms: _300  and  _301
REMARK  125  A    between atoms: _300  and  _303
REMARK  126  A    between atoms: _303  and  _304
REMARK  127  A    between atoms: _306  and  _308
REMARK  128  A    between atoms: _308  and  _309
REMARK  129  A    between atoms: _311  and  _313
REMARK  130  A    between atoms: _313  and  _314
REMARK  131  A    between atoms: _313  and  _316
REMARK  132  A    between atoms: _316  and  _317
REMARK  133  A    between atoms: _322  and  _324
REMARK  134  A    between atoms: _324  and  _325
REMARK  135  A    between atoms: _327  and  _329
REMARK  136  A    between atoms: _329  and  _330
REMARK  137  A    between atoms: _329  and  _332
REMARK  138  A    between atoms: _332  and  _333
REMARK  139  A    between atoms: _339  and  _341
REMARK  140  A    between atoms: _341  and  _342
REMARK  141  A    between atoms: _341  and  _344
REMARK  142  A    between atoms: _344  and  _345
REMARK  143  A    between atoms: _348  and  _350
REMARK  144  A    between atoms: _350  and  _351
REMARK  145  A    between atoms: _350  and  _353
REMARK  146  A    between atoms: _353  and  _354
REMARK  147  A    between atoms: _354  and  _355
REMARK  148  A    between atoms: _358  and  _360
REMARK  149  A    between atoms: _360  and  _361
REMARK  150  A    between atoms: _360  and  _363
REMARK  151  A    between atoms: _363  and  _364
REMARK  152  A    between atoms: _367  and  _369
REMARK  153  A    between atoms: _369  and  _370
REMARK  154  A    between atoms: _369  and  _372
REMARK  155  A    between atoms: _375  and  _377
REMARK  156  A    between atoms: _377  and  _378
REMARK  157  A    between atoms: _377  and  _380
REMARK  158  A    between atoms: _380  and  _381
REMARK  159  A    between atoms: _384  and  _386
REMARK  160  A    between atoms: _386  and  _387
REMARK  161  A    between atoms: _386  and  _389
REMARK  162  A    between atoms: _389  and  _390
REMARK  163  A    between atoms: _395  and  _397
REMARK  164  A    between atoms: _397  and  _398
REMARK  165  A    between atoms: _400  and  _402
REMARK  166  A    between atoms: _402  and  _403
REMARK  167  A    between atoms: _402  and  _405
REMARK  168  A    between atoms: _405  and  _406
REMARK  169  A    between atoms: _406  and  _407
REMARK  170  A    between atoms: _409  and  _411
REMARK  171  A    between atoms: _411  and  _412
REMARK  172  A    between atoms: _411  and  _414
REMARK  173  A    between atoms: _417  and  _419
REMARK  174  A    between atoms: _419  and  _420
REMARK  175  A    between atoms: _419  and  _422
REMARK  176  A    between atoms: _422  and  _423
REMARK  177  A    between atoms: _425  and  _427
REMARK  178  A    between atoms: _427  and  _428
REMARK  179  A    between atoms: _427  and  _430
REMARK  180  A    between atoms: _430  and  _431
REMARK  181  A    between atoms: _433  and  _435
REMARK  182  A    between atoms: _435  and  _436
REMARK  183  A    between atoms: _435  and  _438
REMARK  184  A    between atoms: _438  and  _439
REMARK  185  A    between atoms: _439  and  _440
REMARK  186  A    between atoms: _445  and  _447
REMARK  187  A    between atoms: _447  and  _448
REMARK  188  A    between atoms: _451  and  _453
REMARK  189  A    between atoms: _453  and  _454
REMARK  190  A    between atoms: _453  and  _456
REMARK  191  A    between atoms: _456  and  _457
REMARK  192  A    between atoms: _457  and  _458
REMARK  193  A    between atoms: _460  and  _462
REMARK  194  A    between atoms: _462  and  _463
REMARK  195  A    between atoms: _462  and  _465
REMARK  196  A    between atoms: _465  and  _466
REMARK  197  A    between atoms: _471  and  _472
REMARK  198  A    between atoms: _474  and  _476
REMARK  199  A    between atoms: _476  and  _477
REMARK  200  A    between atoms: _476  and  _479
REMARK  201  A    between atoms: _479  and  _480
REMARK  202  A    between atoms: _483  and  _485
REMARK  203  A    between atoms: _485  and  _486
REMARK  204  A    between atoms: _485  and  _488
REMARK  205  A    between atoms: _488  and  _489
REMARK  206  A    between atoms: _491  and  _493
REMARK  207  A    between atoms: _493  and  _494
REMARK  208  A    between atoms: _493  and  _496
REMARK  209  A    between atoms: _496  and  _497
REMARK  210  A    between atoms: _500  and  _502
REMARK  211  A    between atoms: _502  and  _503
REMARK  212  A    between atoms: _502  and  _505
REMARK  213  A    between atoms: _505  and  _506
REMARK  214  A    between atoms: _506  and  _507
REMARK  215  A    between atoms: _509  and  _511
REMARK  216  A    between atoms: _511  and  _512
REMARK  217  A    between atoms: _511  and  _514
REMARK  218  A    between atoms: _514  and  _515
REMARK  219  A    between atoms: _520  and  _521
REMARK  220  A    between atoms: _523  and  _525
REMARK  221  A    between atoms: _525  and  _526
REMARK  222  A    between atoms: _525  and  _528
REMARK  223  A    between atoms: _528  and  _529
REMARK  224  A    between atoms: _529  and  _530
REMARK  225  A    between atoms: _530  and  _531
REMARK  226  A    between atoms: _540  and  _542
REMARK  227  A    between atoms: _542  and  _543
REMARK  228  A    between atoms: _542  and  _545
REMARK  229  A    between atoms: _545  and  _546
REMARK  230  A    between atoms: _548  and  _550
REMARK  231  A    between atoms: _550  and  _551
REMARK  232  A    between atoms: _550  and  _553
REMARK  233  A    between atoms: _553  and  _554
REMARK  234  A    between atoms: _559  and  _560
REMARK  235  A    between atoms: _562  and  _564
REMARK  236  A    between atoms: _564  and  _565
REMARK  237  A    between atoms: _568  and  _570
REMARK  238  A    between atoms: _570  and  _571
REMARK  239  A    between atoms: _574  and  _576
REMARK  240  A    between atoms: _576  and  _577
REMARK  241  A    between atoms: _576  and  _579
REMARK  242  A    between atoms: _579  and  _580
REMARK  243  A    between atoms: _580  and  _581
REMARK  244  A    between atoms: _581  and  _582
REMARK  245  A    between atoms: _591  and  _593
REMARK  246  A    between atoms: _593  and  _594
REMARK  247  A    between atoms: _593  and  _596
REMARK  248  A    between atoms: _599  and  _601
REMARK  249  A    between atoms: _601  and  _602
REMARK  250  A    between atoms: _604  and  _606
REMARK  251  A    between atoms: _606  and  _607
REMARK  252  A    between atoms: _606  and  _609
REMARK  253  A    between atoms: _609  and  _610
REMARK  254  A    between atoms: _613  and  _615
REMARK  255  A    between atoms: _615  and  _616
REMARK  256  A    between atoms: _619  and  _621
REMARK  257  A    between atoms: _621  and  _622
REMARK  258  A    between atoms: _621  and  _624
REMARK  259  A    between atoms: _624  and  _625
REMARK  260  A    between atoms: _628  and  _630
REMARK  261  A    between atoms: _630  and  _631
REMARK  262  A    between atoms: _630  and  _633
REMARK  263  A    between atoms: _633  and  _634
REMARK  264  A    between atoms: _639  and  _640
REMARK  265  A    between atoms: _642  and  _644
REMARK  266  A    between atoms: _644  and  _645
REMARK  267  A    between atoms: _644  and  _647
REMARK  268  A    between atoms: _647  and  _648
REMARK  269  A    between atoms: _648  and  _649
REMARK  270  A    between atoms: _651  and  _653
REMARK  271  A    between atoms: _653  and  _654
REMARK  272  A    between atoms: _653  and  _656
REMARK  273  A    between atoms: _656  and  _657
REMARK  274  A    between atoms: _657  and  _658
REMARK  275  A    between atoms: _661  and  _663
REMARK  276  A    between atoms: _663  and  _664
REMARK  277  A    between atoms: _663  and  _666
REMARK  278  A    between atoms: _666  and  _667
REMARK  279  A    between atoms: _673  and  _675
REMARK  280  A    between atoms: _675  and  _676
REMARK  281  A    between atoms: _675  and  _678
REMARK  282  A    between atoms: _678  and  _679
REMARK  283  A    between atoms: _684  and  _686
REMARK  284  A    between atoms: _686  and  _687
REMARK  285  A    between atoms: _686  and  _689
REMARK  286  A    between atoms: _689  and  _690
REMARK  287  A    between atoms: _700  and  _702
REMARK  288  A    between atoms: _702  and  _703
REMARK  289  A    between atoms: _702  and  _705
REMARK  290  A    between atoms: _708  and  _710
REMARK  291  A    between atoms: _710  and  _711
REMARK  292  A    between atoms: _710  and  _713
REMARK  293  A    between atoms: _713  and  _714
REMARK  294  A    between atoms: _717  and  _719
REMARK  295  A    between atoms: _719  and  _720
REMARK  296  A    between atoms: _719  and  _722
REMARK  297  A    between atoms: _722  and  _723
REMARK  298  A    between atoms: _723  and  _724
REMARK  299  A    between atoms: _726  and  _728
REMARK  300  A    between atoms: _728  and  _729
REMARK  301  A    between atoms: _728  and  _731
REMARK  302  A    between atoms: _731  and  _732
REMARK  303  A    between atoms: _735  and  _737
REMARK  304  A    between atoms: _737  and  _738
REMARK  305  A    between atoms: _737  and  _740
REMARK  306  A    between atoms: _740  and  _741
REMARK  307  A    between atoms: _744  and  _746
REMARK  308  A    between atoms: _746  and  _747
REMARK  309  A    between atoms: _746  and  _749
REMARK  310  A    between atoms: _749  and  _750
REMARK  311  A    between atoms: _753  and  _755
REMARK  312  A    between atoms: _755  and  _756
REMARK  313  A    between atoms: _755  and  _758
REMARK  314  A    between atoms: _758  and  _759
REMARK  315  A    between atoms: _762  and  _764
REMARK  316  A    between atoms: _764  and  _765
REMARK  317  A    between atoms: _767  and  _769
REMARK  318  A    between atoms: _769  and  _770
REMARK  319  A    between atoms: _769  and  _772
REMARK  320  A    between atoms: _772  and  _773
REMARK  321  A    between atoms: _775  and  _777
REMARK  322  A    between atoms: _777  and  _778
REMARK  323  A    between atoms: _777  and  _780
REMARK  324  A    between atoms: _780  and  _781
REMARK  325  A    between atoms: _791  and  _793
REMARK  326  A    between atoms: _793  and  _794
REMARK  327  A    between atoms: _793  and  _796
REMARK  328  A    between atoms: _796  and  _797
REMARK  329  A    between atoms: _799  and  _801
REMARK  330  A    between atoms: _801  and  _802
REMARK  331  A    between atoms: _801  and  _804
REMARK  332  A    between atoms: _804  and  _805
REMARK  333  A    between atoms: _808  and  _810
REMARK  334  A    between atoms: _810  and  _811
REMARK  335  A    between atoms: _814  and  _816
REMARK  336  A    between atoms: _816  and  _817
REMARK  337  A    between atoms: _816  and  _819
REMARK  338  A    between atoms: _819  and  _820
REMARK  339  A    between atoms: _822  and  _824
REMARK  340  A    between atoms: _824  and  _825
REMARK  341  A    between atoms: _824  and  _827
REMARK  342  A    between atoms: _827  and  _828
REMARK  343  A    between atoms: _828  and  _829
REMARK  344  A    between atoms: _832  and  _834
REMARK  345  A    between atoms: _834  and  _835
REMARK  346  A    between atoms: _834  and  _837
REMARK  347  A    between atoms: _837  and  _838
REMARK  348  A    between atoms: _840  and  _842
REMARK  349  A    between atoms: _842  and  _843
REMARK  350  A    between atoms: _842  and  _845
REMARK  351  A    between atoms: _845  and  _846
REMARK  352  A    between atoms: _846  and  _847
REMARK  353  A    between atoms: _852  and  _854
REMARK  354  A    between atoms: _854  and  _855
REMARK  355  A    between atoms: _854  and  _857
REMARK  356  A    between atoms: _857  and  _858
REMARK  357  A    between atoms: _858  and  _859
REMARK  358  A    between atoms: _864  and  _866
REMARK  359  A    between atoms: _866  and  _867
REMARK  360  A    between atoms: _866  and  _869
REMARK  361  A    between atoms: _869  and  _870
REMARK  362  A    between atoms: _873  and  _875
REMARK  363  A    between atoms: _875  and  _876
REMARK  364  A    between atoms: _875  and  _878
REMARK  365  A    between atoms: _878  and  _879
REMARK  366  A    between atoms: _882  and  _884
REMARK  367  A    between atoms: _884  and  _885
REMARK  368  A    between atoms: _884  and  _887
REMARK  369  A    between atoms: _887  and  _888
REMARK  370  A    between atoms: _895  and  _896
REMARK  371  A    between atoms: _901  and  _903
REMARK  372  A    between atoms: _903  and  _904
REMARK  373  A    between atoms: _903  and  _906
REMARK  374  A    between atoms: _906  and  _907
REMARK  375  A    between atoms: _912  and  _913
REMARK  376  A    between atoms: _915  and  _917
REMARK  377  A    between atoms: _917  and  _918
REMARK  378  A    between atoms: _917  and  _920
REMARK  379  A    between atoms: _920  and  _921
REMARK  380  A    between atoms: _926  and  _928
REMARK  381  A    between atoms: _928  and  _929
REMARK  382  A    between atoms: _928  and  _931
REMARK  383  A    between atoms: _931  and  _932
REMARK  384  A    between atoms: _938  and  _940
REMARK  385  A    between atoms: _940  and  _941
REMARK  386  A    between atoms: _940  and  _943
REMARK  387  A    between atoms: _943  and  _944
REMARK  388  A    between atoms: _947  and  _949
REMARK  389  A    between atoms: _949  and  _950
REMARK  390  A    between atoms: _949  and  _952
REMARK  391  A    between atoms: _952  and  _953
REMARK  392  A    between atoms: _958  and  _960
REMARK  393  A    between atoms: _960  and  _961
REMARK  394  A    between atoms: _960  and  _963
REMARK  395  A    between atoms: _963  and  _964
REMARK  396  A    between atoms: _970  and  _972
REMARK  397  A    between atoms: _972  and  _973
REMARK  398  A    between atoms: _972  and  _975
REMARK  399  A    between atoms: _975  and  _976
REMARK  400  A    between atoms: _976  and  _977
REMARK  401  A    between atoms: _979  and  _981
REMARK  402  A    between atoms: _981  and  _982
REMARK  403  A    between atoms: _981  and  _984
REMARK  404  A    between atoms: _984  and  _985
REMARK  405  A    between atoms: _988  and  _990
REMARK  406  A    between atoms: _990  and  _991
REMARK  407  A    between atoms: _990  and  _993
REMARK  408  A    between atoms: _993  and  _994
REMARK  409  A    between atoms: _999  and  _1001
REMARK  410  A    between atoms: _1001  and  _1002
REMARK  411  A    between atoms: _1001  and  _1004
REMARK  412  A    between atoms: _1004  and  _1005
REMARK  413  A    between atoms: _1010  and  _1011
REMARK                            x       y       z     vdW  Elec       q    Type
REMARK                         _______ _______ _______ _____ _____    ______ ____
ROOT
ATOM      1  O   HOH     1     -17.190  -0.112  12.906  0.00  0.00    +0.000 OA
ENDROOT
TORSDOF 0
REMARK  Name = ../refined-set-2016/3drg/3drg_pocket.pdb
REMARK  413 active torsions:
REMARK  status: ('A' for Active; 'I' for Inactive)
REMARK    1  A    between atoms: _1  and  _3
REMARK    2  A    between atoms: _3  and  _4
REMARK    3  A    between atoms: _3  and  _6
REMARK    4  A    between atoms: _6  and  _7
REMARK    5  A    between atoms: _12  and  _13
REMARK    6  A    between atoms: _15  and  _17
REMARK    7  A    between atoms: _17  and  _18
REMARK    8  A    between atoms: _17  and  _20
REMARK    9  A    between atoms: _20  and  _21
REMARK   10  A    between atoms: _21  and  _22
REMARK   11  A    between atoms: _27  and  _29
REMARK   12  A    between atoms: _29  and  _30
REMARK   13  A    between atoms: _29  and  _32
REMARK   14  A    between atoms: _32  and  _33
REMARK   15  A    between atoms: _35  and  _37
REMARK   16  A    between atoms: _37  and  _38
REMARK   17  A    between atoms: _37  and  _40
REMARK   18  A    between atoms: _40  and  _41
REMARK   19  A    between atoms: _44  and  _46
REMARK   20  A    between atoms: _46  and  _47
REMARK   21  A    between atoms: _46  and  _49
REMARK   22  A    between atoms: _49  and  _50
REMARK   23  A    between atoms: _52  and  _54
REMARK   24  A    between atoms: _54  and  _55
REMARK   25  A    between atoms: _54  and  _57
REMARK   26  A    between atoms: _57  and  _58
REMARK   27  A    between atoms: _61  and  _63
REMARK   28  A    between atoms: _63  and  _64
REMARK   29  A    between atoms: _63  and  _66
REMARK   30  A    between atoms: _66  and  _67
REMARK   31  A    between atoms: _69  and  _71
REMARK   32  A    between atoms: _71  and  _72
REMARK   33  A    between atoms: _74  and  _76
REMARK   34  A    between atoms: _76  and  _77
REMARK   35  A    between atoms: _76  and  _79
REMARK   36  A    between atoms: _79  and  _80
REMARK   37  A    between atoms: _82  and  _84
REMARK   38  A    between atoms: _84  and  _85
REMARK   39  A    between atoms: _84  and  _87
REMARK   40  A    between atoms: _87  and  _88
REMARK   41  A    between atoms: _93  and  _95
REMARK   42  A    between atoms: _95  and  _96
REMARK   43  A    between atoms: _95  and  _98
REMARK   44  A    between atoms: _98  and  _99
REMARK   45  A    between atoms: _102  and  _104
REMARK   46  A    between atoms: _104  and  _105
REMARK   47  A    between atoms: _108  and  _110
REMARK   48  A    between atoms: _110  and  _111
REMARK   49  A    between atoms: _110  and  _113
REMARK   50  A    between atoms: _113  and  _114
REMARK   51  A    between atoms: _117  and  _119
REMARK   52  A    between atoms: _119  and  _120
REMARK   53  A    between atoms: _119  and  _122
REMARK   54  A    between atoms: _122  and  _123
REMARK   55  A    between atoms: _129  and  _131
REMARK   56  A    between atoms: _131  and  _132
REMARK   57  A    between atoms: _135  and  _137
REMARK   58  A    between atoms: _137  and  _138
REMARK   59  A    between atoms: _137  and  _140
REMARK   60  A    between atoms: _140  and  _141
REMARK   61  A    between atoms: _144  and  _146
REMARK   62  A    between atoms: _146  and  _147
REMARK   63  A    between atoms: _146  and  _149
REMARK   64  A    between atoms: _149  and  _150
REMARK   65  A    between atoms: _152  and  _154
REMARK   66  A    between atoms: _154  and  _155
REMARK   67  A    between atoms: _157  and  _159
REMARK   68  A    between atoms: _159  and  _160
REMARK   69  A    between atoms: _162  and  _164
REMARK   70  A    between atoms: _164  and  _165
REMARK   71  A    between atoms: _164  and  _167
REMARK   72  A    between atoms: _167  and  _168
REMARK   73  A    between atoms: _168  and  _169
REMARK   74  A    between atoms: _174  and  _176
REMARK   75  A    between atoms: _176  and  _177
REMARK   76  A    between atoms: _176  and  _179
REMARK   77  A    between atoms: _179  and  _180
REMARK   78  A    between atoms: _183  and  _185
REMARK   79  A    between atoms: _185  and  _186
REMARK   80  A    between atoms: _188  and  _190
REMARK   81  A    between atoms: _190  and  _191
REMARK   82  A    between atoms: _190  and  _193
REMARK   83  A    between atoms: _193  and  _194
REMARK   84  A    between atoms: _197  and  _199
REMARK   85  A    between atoms: _199  and  _200
REMARK   86  A    between atoms: _199  and  _202
REMARK   87  A    between atoms: _202  and  _203
REMARK   88  A    between atoms: _209  and  _211
REMARK   89  A    between atoms: _211  and  _212
REMARK   90  A    between atoms: _211  and  _214
REMARK   91  A    between atoms: _214  and  _215
REMARK   92  A    between atoms: _218  and  _220
REMARK   93  A    between atoms: _220  and  _221
REMARK   94  A    between atoms: _220  and  _223
REMARK   95  A    between atoms: _223  and  _224
REMARK   96  A    between atoms: _230  and  _232
REMARK   97  A    between atoms: _232  and  _233
REMARK   98  A    between atoms: _232  and  _235
REMARK   99  A    between atoms: _235  and  _236
REMARK  100  A    between atoms: _242  and  _244
REMARK  101  A    between atoms: _244  and  _245
REMARK  102  A    between atoms: _244  and  _247
REMARK  103  A    between atoms: _247  and  _248
REMARK  104  A    between atoms: _251  and  _253
REMARK  105  A    between atoms: _253  and  _254
REMARK  106  A    between atoms: _253  and  _256
REMARK  107  A    between atoms: _256  and  _257
REMARK  108  A    between atoms: _260  and  _262
REMARK  109  A    between atoms: _262  and  _263
REMARK  110  A    between atoms: _262  and  _265
REMARK  111  A    between atoms: _265  and  _266
REMARK  112  A    between atoms: _266  and  _267
REMARK  113  A    between atoms: _267  and  _268
REMARK  114  A    between atoms: _277  and  _279
REMARK  115  A    between atoms: _279  and  _280
REMARK  116  A    between atoms: _279  and  _282
REMARK  117  A    between atoms: _282  and  _283
REMARK  118  A    between atoms: _286  and  _288
REMARK  119  A    between atoms: _288  and  _289
REMARK  120  A    between atoms: _288  and  _291
REMARK  121  A    between atoms: _291  and  _292
REMARK  122  A    between atoms: _292  and  _293
REMARK  123  A    between atoms: _298  and  _300
REMARK  124  A    between atoms: _300  and  _301
REMARK  125  A    between atoms: _300  and  _303
REMARK  126  A    between atoms: _303  and  _304
REMARK  127  A    between atoms: _306  and  _308
REMARK  128  A    between atoms: _308  and  _309
REMARK  129  A    between atoms: _311  and  _313
REMARK  130  A    between atoms: _313  and  _314
REMARK  131  A    between atoms: _313  and  _316
REMARK  132  A    between atoms: _316  and  _317
REMARK  133  A    between atoms: _322  and  _324
REMARK  134  A    between atoms: _324  and  _325
REMARK  135  A    between atoms: _327  and  _329
REMARK  136  A    between atoms: _329  and  _330
REMARK  137  A    between atoms: _329  and  _332
REMARK  138  A    between atoms: _332  and  _333
REMARK  139  A    between atoms: _339  and  _341
REMARK  140  A    between atoms: _341  and  _342
REMARK  141  A    between atoms: _341  and  _344
REMARK  142  A    between atoms: _344  and  _345
REMARK  143  A    between atoms: _348  and  _350
REMARK  144  A    between atoms: _350  and  _351
REMARK  145  A    between atoms: _350  and  _353
REMARK  146  A    between atoms: _353  and  _354
REMARK  147  A    between atoms: _354  and  _355
REMARK  148  A    between atoms: _358  and  _360
REMARK  149  A    between atoms: _360  and  _361
REMARK  150  A    between atoms: _360  and  _363
REMARK  151  A    between atoms: _363  and  _364
REMARK  152  A    between atoms: _367  and  _369
REMARK  153  A    between atoms: _369  and  _370
REMARK  154  A    between atoms: _369  and  _372
REMARK  155  A    between atoms: _375  and  _377
REMARK  156  A    between atoms: _377  and  _378
REMARK  157  A    between atoms: _377  and  _380
REMARK  158  A    between atoms: _380  and  _381
REMARK  159  A    between atoms: _384  and  _386
REMARK  160  A    between atoms: _386  and  _387
REMARK  161  A    between atoms: _386  and  _389
REMARK  162  A    between atoms: _389  and  _390
REMARK  163  A    between atoms: _395  and  _397
REMARK  164  A    between atoms: _397  and  _398
REMARK  165  A    between atoms: _400  and  _402
REMARK  166  A    between atoms: _402  and  _403
REMARK  167  A    between atoms: _402  and  _405
REMARK  168  A    between atoms: _405  and  _406
REMARK  169  A    between atoms: _406  and  _407
REMARK  170  A    between atoms: _409  and  _411
REMARK  171  A    between atoms: _411  and  _412
REMARK  172  A    between atoms: _411  and  _414
REMARK  173  A    between atoms: _417  and  _419
REMARK  174  A    between atoms: _419  and  _420
REMARK  175  A    between atoms: _419  and  _422
REMARK  176  A    between atoms: _422  and  _423
REMARK  177  A    between atoms: _425  and  _427
REMARK  178  A    between atoms: _427  and  _428
REMARK  179  A    between atoms: _427  and  _430
REMARK  180  A    between atoms: _430  and  _431
REMARK  181  A    between atoms: _433  and  _435
REMARK  182  A    between atoms: _435  and  _436
REMARK  183  A    between atoms: _435  and  _438
REMARK  184  A    between atoms: _438  and  _439
REMARK  185  A    between atoms: _439  and  _440
REMARK  186  A    between atoms: _445  and  _447
REMARK  187  A    between atoms: _447  and  _448
REMARK  188  A    between atoms: _451  and  _453
REMARK  189  A    between atoms: _453  and  _454
REMARK  190  A    between atoms: _453  and  _456
REMARK  191  A    between atoms: _456  and  _457
REMARK  192  A    between atoms: _457  and  _458
REMARK  193  A    between atoms: _460  and  _462
REMARK  194  A    between atoms: _462  and  _463
REMARK  195  A    between atoms: _462  and  _465
REMARK  196  A    between atoms: _465  and  _466
REMARK  197  A    between atoms: _471  and  _472
REMARK  198  A    between atoms: _474  and  _476
REMARK  199  A    between atoms: _476  and  _477
REMARK  200  A    between atoms: _476  and  _479
REMARK  201  A    between atoms: _479  and  _480
REMARK  202  A    between atoms: _483  and  _485
REMARK  203  A    between atoms: _485  and  _486
REMARK  204  A    between atoms: _485  and  _488
REMARK  205  A    between atoms: _488  and  _489
REMARK  206  A    between atoms: _491  and  _493
REMARK  207  A    between atoms: _493  and  _494
REMARK  208  A    between atoms: _493  and  _496
REMARK  209  A    between atoms: _496  and  _497
REMARK  210  A    between atoms: _500  and  _502
REMARK  211  A    between atoms: _502  and  _503
REMARK  212  A    between atoms: _502  and  _505
REMARK  213  A    between atoms: _505  and  _506
REMARK  214  A    between atoms: _506  and  _507
REMARK  215  A    between atoms: _509  and  _511
REMARK  216  A    between atoms: _511  and  _512
REMARK  217  A    between atoms: _511  and  _514
REMARK  218  A    between atoms: _514  and  _515
REMARK  219  A    between atoms: _520  and  _521
REMARK  220  A    between atoms: _523  and  _525
REMARK  221  A    between atoms: _525  and  _526
REMARK  222  A    between atoms: _525  and  _528
REMARK  223  A    between atoms: _528  and  _529
REMARK  224  A    between atoms: _529  and  _530
REMARK  225  A    between atoms: _530  and  _531
REMARK  226  A    between atoms: _540  and  _542
REMARK  227  A    between atoms: _542  and  _543
REMARK  228  A    between atoms: _542  and  _545
REMARK  229  A    between atoms: _545  and  _546
REMARK  230  A    between atoms: _548  and  _550
REMARK  231  A    between atoms: _550  and  _551
REMARK  232  A    between atoms: _550  and  _553
REMARK  233  A    between atoms: _553  and  _554
REMARK  234  A    between atoms: _559  and  _560
REMARK  235  A    between atoms: _562  and  _564
REMARK  236  A    between atoms: _564  and  _565
REMARK  237  A    between atoms: _568  and  _570
REMARK  238  A    between atoms: _570  and  _571
REMARK  239  A    between atoms: _574  and  _576
REMARK  240  A    between atoms: _576  and  _577
REMARK  241  A    between atoms: _576  and  _579
REMARK  242  A    between atoms: _579  and  _580
REMARK  243  A    between atoms: _580  and  _581
REMARK  244  A    between atoms: _581  and  _582
REMARK  245  A    between atoms: _591  and  _593
REMARK  246  A    between atoms: _593  and  _594
REMARK  247  A    between atoms: _593  and  _596
REMARK  248  A    between atoms: _599  and  _601
REMARK  249  A    between atoms: _601  and  _602
REMARK  250  A    between atoms: _604  and  _606
REMARK  251  A    between atoms: _606  and  _607
REMARK  252  A    between atoms: _606  and  _609
REMARK  253  A    between atoms: _609  and  _610
REMARK  254  A    between atoms: _613  and  _615
REMARK  255  A    between atoms: _615  and  _616
REMARK  256  A    between atoms: _619  and  _621
REMARK  257  A    between atoms: _621  and  _622
REMARK  258  A    between atoms: _621  and  _624
REMARK  259  A    between atoms: _624  and  _625
REMARK  260  A    between atoms: _628  and  _630
REMARK  261  A    between atoms: _630  and  _631
REMARK  262  A    between atoms: _630  and  _633
REMARK  263  A    between atoms: _633  and  _634
REMARK  264  A    between atoms: _639  and  _640
REMARK  265  A    between atoms: _642  and  _644
REMARK  266  A    between atoms: _644  and  _645
REMARK  267  A    between atoms: _644  and  _647
REMARK  268  A    between atoms: _647  and  _648
REMARK  269  A    between atoms: _648  and  _649
REMARK  270  A    between atoms: _651  and  _653
REMARK  271  A    between atoms: _653  and  _654
REMARK  272  A    between atoms: _653  and  _656
REMARK  273  A    between atoms: _656  and  _657
REMARK  274  A    between atoms: _657  and  _658
REMARK  275  A    between atoms: _661  and  _663
REMARK  276  A    between atoms: _663  and  _664
REMARK  277  A    between atoms: _663  and  _666
REMARK  278  A    between atoms: _666  and  _667
REMARK  279  A    between atoms: _673  and  _675
REMARK  280  A    between atoms: _675  and  _676
REMARK  281  A    between atoms: _675  and  _678
REMARK  282  A    between atoms: _678  and  _679
REMARK  283  A    between atoms: _684  and  _686
REMARK  284  A    between atoms: _686  and  _687
REMARK  285  A    between atoms: _686  and  _689
REMARK  286  A    between atoms: _689  and  _690
REMARK  287  A    between atoms: _700  and  _702
REMARK  288  A    between atoms: _702  and  _703
REMARK  289  A    between atoms: _702  and  _705
REMARK  290  A    between atoms: _708  and  _710
REMARK  291  A    between atoms: _710  and  _711
REMARK  292  A    between atoms: _710  and  _713
REMARK  293  A    between atoms: _713  and  _714
REMARK  294  A    between atoms: _717  and  _719
REMARK  295  A    between atoms: _719  and  _720
REMARK  296  A    between atoms: _719  and  _722
REMARK  297  A    between atoms: _722  and  _723
REMARK  298  A    between atoms: _723  and  _724
REMARK  299  A    between atoms: _726  and  _728
REMARK  300  A    between atoms: _728  and  _729
REMARK  301  A    between atoms: _728  and  _731
REMARK  302  A    between atoms: _731  and  _732
REMARK  303  A    between atoms: _735  and  _737
REMARK  304  A    between atoms: _737  and  _738
REMARK  305  A    between atoms: _737  and  _740
REMARK  306  A    between atoms: _740  and  _741
REMARK  307  A    between atoms: _744  and  _746
REMARK  308  A    between atoms: _746  and  _747
REMARK  309  A    between atoms: _746  and  _749
REMARK  310  A    between atoms: _749  and  _750
REMARK  311  A    between atoms: _753  and  _755
REMARK  312  A    between atoms: _755  and  _756
REMARK  313  A    between atoms: _755  and  _758
REMARK  314  A    between atoms: _758  and  _759
REMARK  315  A    between atoms: _762  and  _764
REMARK  316  A    between atoms: _764  and  _765
REMARK  317  A    between atoms: _767  and  _769
REMARK  318  A    between atoms: _769  and  _770
REMARK  319  A    between atoms: _769  and  _772
REMARK  320  A    between atoms: _772  and  _773
REMARK  321  A    between atoms: _775  and  _777
REMARK  322  A    between atoms: _777  and  _778
REMARK  323  A    between atoms: _777  and  _780
REMARK  324  A    between atoms: _780  and  _781
REMARK  325  A    between atoms: _791  and  _793
REMARK  326  A    between atoms: _793  and  _794
REMARK  327  A    between atoms: _793  and  _796
REMARK  328  A    between atoms: _796  and  _797
REMARK  329  A    between atoms: _799  and  _801
REMARK  330  A    between atoms: _801  and  _802
REMARK  331  A    between atoms: _801  and  _804
REMARK  332  A    between atoms: _804  and  _805
REMARK  333  A    between atoms: _808  and  _810
REMARK  334  A    between atoms: _810  and  _811
REMARK  335  A    between atoms: _814  and  _816
REMARK  336  A    between atoms: _816  and  _817
REMARK  337  A    between atoms: _816  and  _819
REMARK  338  A    between atoms: _819  and  _820
REMARK  339  A    between atoms: _822  and  _824
REMARK  340  A    between atoms: _824  and  _825
REMARK  341  A    between atoms: _824  and  _827
REMARK  342  A    between atoms: _827  and  _828
REMARK  343  A    between atoms: _828  and  _829
REMARK  344  A    between atoms: _832  and  _834
REMARK  345  A    between atoms: _834  and  _835
REMARK  346  A    between atoms: _834  and  _837
REMARK  347  A    between atoms: _837  and  _838
REMARK  348  A    between atoms: _840  and  _842
REMARK  349  A    between atoms: _842  and  _843
REMARK  350  A    between atoms: _842  and  _845
REMARK  351  A    between atoms: _845  and  _846
REMARK  352  A    between atoms: _846  and  _847
REMARK  353  A    between atoms: _852  and  _854
REMARK  354  A    between atoms: _854  and  _855
REMARK  355  A    between atoms: _854  and  _857
REMARK  356  A    between atoms: _857  and  _858
REMARK  357  A    between atoms: _858  and  _859
REMARK  358  A    between atoms: _864  and  _866
REMARK  359  A    between atoms: _866  and  _867
REMARK  360  A    between atoms: _866  and  _869
REMARK  361  A    between atoms: _869  and  _870
REMARK  362  A    between atoms: _873  and  _875
REMARK  363  A    between atoms: _875  and  _876
REMARK  364  A    between atoms: _875  and  _878
REMARK  365  A    between atoms: _878  and  _879
REMARK  366  A    between atoms: _882  and  _884
REMARK  367  A    between atoms: _884  and  _885
REMARK  368  A    between atoms: _884  and  _887
REMARK  369  A    between atoms: _887  and  _888
REMARK  370  A    between atoms: _895  and  _896
REMARK  371  A    between atoms: _901  and  _903
REMARK  372  A    between atoms: _903  and  _904
REMARK  373  A    between atoms: _903  and  _906
REMARK  374  A    between atoms: _906  and  _907
REMARK  375  A    between atoms: _912  and  _913
REMARK  376  A    between atoms: _915  and  _917
REMARK  377  A    between atoms: _917  and  _918
REMARK  378  A    between atoms: _917  and  _920
REMARK  379  A    between atoms: _920  and  _921
REMARK  380  A    between atoms: _926  and  _928
REMARK  381  A    between atoms: _928  and  _929
REMARK  382  A    between atoms: _928  and  _931
REMARK  383  A    between atoms: _931  and  _932
REMARK  384  A    between atoms: _938  and  _940
REMARK  385  A    between atoms: _940  and  _941
REMARK  386  A    between atoms: _940  and  _943
REMARK  387  A    between atoms: _943  and  _944
REMARK  388  A    between atoms: _947  and  _949
REMARK  389  A    between atoms: _949  and  _950
REMARK  390  A    between atoms: _949  and  _952
REMARK  391  A    between atoms: _952  and  _953
REMARK  392  A    between atoms: _958  and  _960
REMARK  393  A    between atoms: _960  and  _961
REMARK  394  A    between atoms: _960  and  _963
REMARK  395  A    between atoms: _963  and  _964
REMARK  396  A    between atoms: _970  and  _972
REMARK  397  A    between atoms: _972  and  _973
REMARK  398  A    between atoms: _972  and  _975
REMARK  399  A    between atoms: _975  and  _976
REMARK  400  A    between atoms: _976  and  _977
REMARK  401  A    between atoms: _979  and  _981
REMARK  402  A    between atoms: _981  and  _982
REMARK  403  A    between atoms: _981  and  _984
REMARK  404  A    between atoms: _984  and  _985
REMARK  405  A    between atoms: _988  and  _990
REMARK  406  A    between atoms: _990  and  _991
REMARK  407  A    between atoms: _990  and  _993
REMARK  408  A    between atoms: _993  and  _994
REMARK  409  A    between atoms: _999  and  _1001
REMARK  410  A    between atoms: _1001  and  _1002
REMARK  411  A    between atoms: _1001  and  _1004
REMARK  412  A    between atoms: _1004  and  _1005
REMARK  413  A    between atoms: _1010  and  _1011
REMARK                            x       y       z     vdW  Elec       q    Type
REMARK                         _______ _______ _______ _____ _____    ______ ____
ROOT
ATOM      1  O   HOH     1     -12.068  -5.377  30.723  0.00  0.00    +0.000 OA
ENDROOT
TORSDOF 0
REMARK  Name = ../refined-set-2016/3drg/3drg_pocket.pdb
REMARK  413 active torsions:
REMARK  status: ('A' for Active; 'I' for Inactive)
REMARK    1  A    between atoms: _1  and  _3
REMARK    2  A    between atoms: _3  and  _4
REMARK    3  A    between atoms: _3  and  _6
REMARK    4  A    between atoms: _6  and  _7
REMARK    5  A    between atoms: _12  and  _13
REMARK    6  A    between atoms: _15  and  _17
REMARK    7  A    between atoms: _17  and  _18
REMARK    8  A    between atoms: _17  and  _20
REMARK    9  A    between atoms: _20  and  _21
REMARK   10  A    between atoms: _21  and  _22
REMARK   11  A    between atoms: _27  and  _29
REMARK   12  A    between atoms: _29  and  _30
REMARK   13  A    between atoms: _29  and  _32
REMARK   14  A    between atoms: _32  and  _33
REMARK   15  A    between atoms: _35  and  _37
REMARK   16  A    between atoms: _37  and  _38
REMARK   17  A    between atoms: _37  and  _40
REMARK   18  A    between atoms: _40  and  _41
REMARK   19  A    between atoms: _44  and  _46
REMARK   20  A    between atoms: _46  and  _47
REMARK   21  A    between atoms: _46  and  _49
REMARK   22  A    between atoms: _49  and  _50
REMARK   23  A    between atoms: _52  and  _54
REMARK   24  A    between atoms: _54  and  _55
REMARK   25  A    between atoms: _54  and  _57
REMARK   26  A    between atoms: _57  and  _58
REMARK   27  A    between atoms: _61  and  _63
REMARK   28  A    between atoms: _63  and  _64
REMARK   29  A    between atoms: _63  and  _66
REMARK   30  A    between atoms: _66  and  _67
REMARK   31  A    between atoms: _69  and  _71
REMARK   32  A    between atoms: _71  and  _72
REMARK   33  A    between atoms: _74  and  _76
REMARK   34  A    between atoms: _76  and  _77
REMARK   35  A    between atoms: _76  and  _79
REMARK   36  A    between atoms: _79  and  _80
REMARK   37  A    between atoms: _82  and  _84
REMARK   38  A    between atoms: _84  and  _85
REMARK   39  A    between atoms: _84  and  _87
REMARK   40  A    between atoms: _87  and  _88
REMARK   41  A    between atoms: _93  and  _95
REMARK   42  A    between atoms: _95  and  _96
REMARK   43  A    between atoms: _95  and  _98
REMARK   44  A    between atoms: _98  and  _99
REMARK   45  A    between atoms: _102  and  _104
REMARK   46  A    between atoms: _104  and  _105
REMARK   47  A    between atoms: _108  and  _110
REMARK   48  A    between atoms: _110  and  _111
REMARK   49  A    between atoms: _110  and  _113
REMARK   50  A    between atoms: _113  and  _114
REMARK   51  A    between atoms: _117  and  _119
REMARK   52  A    between atoms: _119  and  _120
REMARK   53  A    between atoms: _119  and  _122
REMARK   54  A    between atoms: _122  and  _123
REMARK   55  A    between atoms: _129  and  _131
REMARK   56  A    between atoms: _131  and  _132
REMARK   57  A    between atoms: _135  and  _137
REMARK   58  A    between atoms: _137  and  _138
REMARK   59  A    between atoms: _137  and  _140
REMARK   60  A    between atoms: _140  and  _141
REMARK   61  A    between atoms: _144  and  _146
REMARK   62  A    between atoms: _146  and  _147
REMARK   63  A    between atoms: _146  and  _149
REMARK   64  A    between atoms: _149  and  _150
REMARK   65  A    between atoms: _152  and  _154
REMARK   66  A    between atoms: _154  and  _155
REMARK   67  A    between atoms: _157  and  _159
REMARK   68  A    between atoms: _159  and  _160
REMARK   69  A    between atoms: _162  and  _164
REMARK   70  A    between atoms: _164  and  _165
REMARK   71  A    between atoms: _164  and  _167
REMARK   72  A    between atoms: _167  and  _168
REMARK   73  A    between atoms: _168  and  _169
REMARK   74  A    between atoms: _174  and  _176
REMARK   75  A    between atoms: _176  and  _177
REMARK   76  A    between atoms: _176  and  _179
REMARK   77  A    between atoms: _179  and  _180
REMARK   78  A    between atoms: _183  and  _185
REMARK   79  A    between atoms: _185  and  _186
REMARK   80  A    between atoms: _188  and  _190
REMARK   81  A    between atoms: _190  and  _191
REMARK   82  A    between atoms: _190  and  _193
REMARK   83  A    between atoms: _193  and  _194
REMARK   84  A    between atoms: _197  and  _199
REMARK   85  A    between atoms: _199  and  _200
REMARK   86  A    between atoms: _199  and  _202
REMARK   87  A    between atoms: _202  and  _203
REMARK   88  A    between atoms: _209  and  _211
REMARK   89  A    between atoms: _211  and  _212
REMARK   90  A    between atoms: _211  and  _214
REMARK   91  A    between atoms: _214  and  _215
REMARK   92  A    between atoms: _218  and  _220
REMARK   93  A    between atoms: _220  and  _221
REMARK   94  A    between atoms: _220  and  _223
REMARK   95  A    between atoms: _223  and  _224
REMARK   96  A    between atoms: _230  and  _232
REMARK   97  A    between atoms: _232  and  _233
REMARK   98  A    between atoms: _232  and  _235
REMARK   99  A    between atoms: _235  and  _236
REMARK  100  A    between atoms: _242  and  _244
REMARK  101  A    between atoms: _244  and  _245
REMARK  102  A    between atoms: _244  and  _247
REMARK  103  A    between atoms: _247  and  _248
REMARK  104  A    between atoms: _251  and  _253
REMARK  105  A    between atoms: _253  and  _254
REMARK  106  A    between atoms: _253  and  _256
REMARK  107  A    between atoms: _256  and  _257
REMARK  108  A    between atoms: _260  and  _262
REMARK  109  A    between atoms: _262  and  _263
REMARK  110  A    between atoms: _262  and  _265
REMARK  111  A    between atoms: _265  and  _266
REMARK  112  A    between atoms: _266  and  _267
REMARK  113  A    between atoms: _267  and  _268
REMARK  114  A    between atoms: _277  and  _279
REMARK  115  A    between atoms: _279  and  _280
REMARK  116  A    between atoms: _279  and  _282
REMARK  117  A    between atoms: _282  and  _283
REMARK  118  A    between atoms: _286  and  _288
REMARK  119  A    between atoms: _288  and  _289
REMARK  120  A    between atoms: _288  and  _291
REMARK  121  A    between atoms: _291  and  _292
REMARK  122  A    between atoms: _292  and  _293
REMARK  123  A    between atoms: _298  and  _300
REMARK  124  A    between atoms: _300  and  _301
REMARK  125  A    between atoms: _300  and  _303
REMARK  126  A    between atoms: _303  and  _304
REMARK  127  A    between atoms: _306  and  _308
REMARK  128  A    between atoms: _308  and  _309
REMARK  129  A    between atoms: _311  and  _313
REMARK  130  A    between atoms: _313  and  _314
REMARK  131  A    between atoms: _313  and  _316
REMARK  132  A    between atoms: _316  and  _317
REMARK  133  A    between atoms: _322  and  _324
REMARK  134  A    between atoms: _324  and  _325
REMARK  135  A    between atoms: _327  and  _329
REMARK  136  A    between atoms: _329  and  _330
REMARK  137  A    between atoms: _329  and  _332
REMARK  138  A    between atoms: _332  and  _333
REMARK  139  A    between atoms: _339  and  _341
REMARK  140  A    between atoms: _341  and  _342
REMARK  141  A    between atoms: _341  and  _344
REMARK  142  A    between atoms: _344  and  _345
REMARK  143  A    between atoms: _348  and  _350
REMARK  144  A    between atoms: _350  and  _351
REMARK  145  A    between atoms: _350  and  _353
REMARK  146  A    between atoms: _353  and  _354
REMARK  147  A    between atoms: _354  and  _355
REMARK  148  A    between atoms: _358  and  _360
REMARK  149  A    between atoms: _360  and  _361
REMARK  150  A    between atoms: _360  and  _363
REMARK  151  A    between atoms: _363  and  _364
REMARK  152  A    between atoms: _367  and  _369
REMARK  153  A    between atoms: _369  and  _370
REMARK  154  A    between atoms: _369  and  _372
REMARK  155  A    between atoms: _375  and  _377
REMARK  156  A    between atoms: _377  and  _378
REMARK  157  A    between atoms: _377  and  _380
REMARK  158  A    between atoms: _380  and  _381
REMARK  159  A    between atoms: _384  and  _386
REMARK  160  A    between atoms: _386  and  _387
REMARK  161  A    between atoms: _386  and  _389
REMARK  162  A    between atoms: _389  and  _390
REMARK  163  A    between atoms: _395  and  _397
REMARK  164  A    between atoms: _397  and  _398
REMARK  165  A    between atoms: _400  and  _402
REMARK  166  A    between atoms: _402  and  _403
REMARK  167  A    between atoms: _402  and  _405
REMARK  168  A    between atoms: _405  and  _406
REMARK  169  A    between atoms: _406  and  _407
REMARK  170  A    between atoms: _409  and  _411
REMARK  171  A    between atoms: _411  and  _412
REMARK  172  A    between atoms: _411  and  _414
REMARK  173  A    between atoms: _417  and  _419
REMARK  174  A    between atoms: _419  and  _420
REMARK  175  A    between atoms: _419  and  _422
REMARK  176  A    between atoms: _422  and  _423
REMARK  177  A    between atoms: _425  and  _427
REMARK  178  A    between atoms: _427  and  _428
REMARK  179  A    between atoms: _427  and  _430
REMARK  180  A    between atoms: _430  and  _431
REMARK  181  A    between atoms: _433  and  _435
REMARK  182  A    between atoms: _435  and  _436
REMARK  183  A    between atoms: _435  and  _438
REMARK  184  A    between atoms: _438  and  _439
REMARK  185  A    between atoms: _439  and  _440
REMARK  186  A    between atoms: _445  and  _447
REMARK  187  A    between atoms: _447  and  _448
REMARK  188  A    between atoms: _451  and  _453
REMARK  189  A    between atoms: _453  and  _454
REMARK  190  A    between atoms: _453  and  _456
REMARK  191  A    between atoms: _456  and  _457
REMARK  192  A    between atoms: _457  and  _458
REMARK  193  A    between atoms: _460  and  _462
REMARK  194  A    between atoms: _462  and  _463
REMARK  195  A    between atoms: _462  and  _465
REMARK  196  A    between atoms: _465  and  _466
REMARK  197  A    between atoms: _471  and  _472
REMARK  198  A    between atoms: _474  and  _476
REMARK  199  A    between atoms: _476  and  _477
REMARK  200  A    between atoms: _476  and  _479
REMARK  201  A    between atoms: _479  and  _480
REMARK  202  A    between atoms: _483  and  _485
REMARK  203  A    between atoms: _485  and  _486
REMARK  204  A    between atoms: _485  and  _488
REMARK  205  A    between atoms: _488  and  _489
REMARK  206  A    between atoms: _491  and  _493
REMARK  207  A    between atoms: _493  and  _494
REMARK  208  A    between atoms: _493  and  _496
REMARK  209  A    between atoms: _496  and  _497
REMARK  210  A    between atoms: _500  and  _502
REMARK  211  A    between atoms: _502  and  _503
REMARK  212  A    between atoms: _502  and  _505
REMARK  213  A    between atoms: _505  and  _506
REMARK  214  A    between atoms: _506  and  _507
REMARK  215  A    between atoms: _509  and  _511
REMARK  216  A    between atoms: _511  and  _512
REMARK  217  A    between atoms: _511  and  _514
REMARK  218  A    between atoms: _514  and  _515
REMARK  219  A    between atoms: _520  and  _521
REMARK  220  A    between atoms: _523  and  _525
REMARK  221  A    between atoms: _525  and  _526
REMARK  222  A    between atoms: _525  and  _528
REMARK  223  A    between atoms: _528  and  _529
REMARK  224  A    between atoms: _529  and  _530
REMARK  225  A    between atoms: _530  and  _531
REMARK  226  A    between atoms: _540  and  _542
REMARK  227  A    between atoms: _542  and  _543
REMARK  228  A    between atoms: _542  and  _545
REMARK  229  A    between atoms: _545  and  _546
REMARK  230  A    between atoms: _548  and  _550
REMARK  231  A    between atoms: _550  and  _551
REMARK  232  A    between atoms: _550  and  _553
REMARK  233  A    between atoms: _553  and  _554
REMARK  234  A    between atoms: _559  and  _560
REMARK  235  A    between atoms: _562  and  _564
REMARK  236  A    between atoms: _564  and  _565
REMARK  237  A    between atoms: _568  and  _570
REMARK  238  A    between atoms: _570  and  _571
REMARK  239  A    between atoms: _574  and  _576
REMARK  240  A    between atoms: _576  and  _577
REMARK  241  A    between atoms: _576  and  _579
REMARK  242  A    between atoms: _579  and  _580
REMARK  243  A    between atoms: _580  and  _581
REMARK  244  A    between atoms: _581  and  _582
REMARK  245  A    between atoms: _591  and  _593
REMARK  246  A    between atoms: _593  and  _594
REMARK  247  A    between atoms: _593  and  _596
REMARK  248  A    between atoms: _599  and  _601
REMARK  249  A    between atoms: _601  and  _602
REMARK  250  A    between atoms: _604  and  _606
REMARK  251  A    between atoms: _606  and  _607
REMARK  252  A    between atoms: _606  and  _609
REMARK  253  A    between atoms: _609  and  _610
REMARK  254  A    between atoms: _613  and  _615
REMARK  255  A    between atoms: _615  and  _616
REMARK  256  A    between atoms: _619  and  _621
REMARK  257  A    between atoms: _621  and  _622
REMARK  258  A    between atoms: _621  and  _624
REMARK  259  A    between atoms: _624  and  _625
REMARK  260  A    between atoms: _628  and  _630
REMARK  261  A    between atoms: _630  and  _631
REMARK  262  A    between atoms: _630  and  _633
REMARK  263  A    between atoms: _633  and  _634
REMARK  264  A    between atoms: _639  and  _640
REMARK  265  A    between atoms: _642  and  _644
REMARK  266  A    between atoms: _644  and  _645
REMARK  267  A    between atoms: _644  and  _647
REMARK  268  A    between atoms: _647  and  _648
REMARK  269  A    between atoms: _648  and  _649
REMARK  270  A    between atoms: _651  and  _653
REMARK  271  A    between atoms: _653  and  _654
REMARK  272  A    between atoms: _653  and  _656
REMARK  273  A    between atoms: _656  and  _657
REMARK  274  A    between atoms: _657  and  _658
REMARK  275  A    between atoms: _661  and  _663
REMARK  276  A    between atoms: _663  and  _664
REMARK  277  A    between atoms: _663  and  _666
REMARK  278  A    between atoms: _666  and  _667
REMARK  279  A    between atoms: _673  and  _675
REMARK  280  A    between atoms: _675  and  _676
REMARK  281  A    between atoms: _675  and  _678
REMARK  282  A    between atoms: _678  and  _679
REMARK  283  A    between atoms: _684  and  _686
REMARK  284  A    between atoms: _686  and  _687
REMARK  285  A    between atoms: _686  and  _689
REMARK  286  A    between atoms: _689  and  _690
REMARK  287  A    between atoms: _700  and  _702
REMARK  288  A    between atoms: _702  and  _703
REMARK  289  A    between atoms: _702  and  _705
REMARK  290  A    between atoms: _708  and  _710
REMARK  291  A    between atoms: _710  and  _711
REMARK  292  A    between atoms: _710  and  _713
REMARK  293  A    between atoms: _713  and  _714
REMARK  294  A    between atoms: _717  and  _719
REMARK  295  A    between atoms: _719  and  _720
REMARK  296  A    between atoms: _719  and  _722
REMARK  297  A    between atoms: _722  and  _723
REMARK  298  A    between atoms: _723  and  _724
REMARK  299  A    between atoms: _726  and  _728
REMARK  300  A    between atoms: _728  and  _729
REMARK  301  A    between atoms: _728  and  _731
REMARK  302  A    between atoms: _731  and  _732
REMARK  303  A    between atoms: _735  and  _737
REMARK  304  A    between atoms: _737  and  _738
REMARK  305  A    between atoms: _737  and  _740
REMARK  306  A    between atoms: _740  and  _741
REMARK  307  A    between atoms: _744  and  _746
REMARK  308  A    between atoms: _746  and  _747
REMARK  309  A    between atoms: _746  and  _749
REMARK  310  A    between atoms: _749  and  _750
REMARK  311  A    between atoms: _753  and  _755
REMARK  312  A    between atoms: _755  and  _756
REMARK  313  A    between atoms: _755  and  _758
REMARK  314  A    between atoms: _758  and  _759
REMARK  315  A    between atoms: _762  and  _764
REMARK  316  A    between atoms: _764  and  _765
REMARK  317  A    between atoms: _767  and  _769
REMARK  318  A    between atoms: _769  and  _770
REMARK  319  A    between atoms: _769  and  _772
REMARK  320  A    between atoms: _772  and  _773
REMARK  321  A    between atoms: _775  and  _777
REMARK  322  A    between atoms: _777  and  _778
REMARK  323  A    between atoms: _777  and  _780
REMARK  324  A    between atoms: _780  and  _781
REMARK  325  A    between atoms: _791  and  _793
REMARK  326  A    between atoms: _793  and  _794
REMARK  327  A    between atoms: _793  and  _796
REMARK  328  A    between atoms: _796  and  _797
REMARK  329  A    between atoms: _799  and  _801
REMARK  330  A    between atoms: _801  and  _802
REMARK  331  A    between atoms: _801  and  _804
REMARK  332  A    between atoms: _804  and  _805
REMARK  333  A    between atoms: _808  and  _810
REMARK  334  A    between atoms: _810  and  _811
REMARK  335  A    between atoms: _814  and  _816
REMARK  336  A    between atoms: _816  and  _817
REMARK  337  A    between atoms: _816  and  _819
REMARK  338  A    between atoms: _819  and  _820
REMARK  339  A    between atoms: _822  and  _824
REMARK  340  A    between atoms: _824  and  _825
REMARK  341  A    between atoms: _824  and  _827
REMARK  342  A    between atoms: _827  and  _828
REMARK  343  A    between atoms: _828  and  _829
REMARK  344  A    between atoms: _832  and  _834
REMARK  345  A    between atoms: _834  and  _835
REMARK  346  A    between atoms: _834  and  _837
REMARK  347  A    between atoms: _837  and  _838
REMARK  348  A    between atoms: _840  and  _842
REMARK  349  A    between atoms: _842  and  _843
REMARK  350  A    between atoms: _842  and  _845
REMARK  351  A    between atoms: _845  and  _846
REMARK  352  A    between atoms: _846  and  _847
REMARK  353  A    between atoms: _852  and  _854
REMARK  354  A    between atoms: _854  and  _855
REMARK  355  A    between atoms: _854  and  _857
REMARK  356  A    between atoms: _857  and  _858
REMARK  357  A    between atoms: _858  and  _859
REMARK  358  A    between atoms: _864  and  _866
REMARK  359  A    between atoms: _866  and  _867
REMARK  360  A    between atoms: _866  and  _869
REMARK  361  A    between atoms: _869  and  _870
REMARK  362  A    between atoms: _873  and  _875
REMARK  363  A    between atoms: _875  and  _876
REMARK  364  A    between atoms: _875  and  _878
REMARK  365  A    between atoms: _878  and  _879
REMARK  366  A    between atoms: _882  and  _884
REMARK  367  A    between atoms: _884  and  _885
REMARK  368  A    between atoms: _884  and  _887
REMARK  369  A    between atoms: _887  and  _888
REMARK  370  A    between atoms: _895  and  _896
REMARK  371  A    between atoms: _901  and  _903
REMARK  372  A    between atoms: _903  and  _904
REMARK  373  A    between atoms: _903  and  _906
REMARK  374  A    between atoms: _906  and  _907
REMARK  375  A    between atoms: _912  and  _913
REMARK  376  A    between atoms: _915  and  _917
REMARK  377  A    between atoms: _917  and  _918
REMARK  378  A    between atoms: _917  and  _920
REMARK  379  A    between atoms: _920  and  _921
REMARK  380  A    between atoms: _926  and  _928
REMARK  381  A    between atoms: _928  and  _929
REMARK  382  A    between atoms: _928  and  _931
REMARK  383  A    between atoms: _931  and  _932
REMARK  384  A    between atoms: _938  and  _940
REMARK  385  A    between atoms: _940  and  _941
REMARK  386  A    between atoms: _940  and  _943
REMARK  387  A    between atoms: _943  and  _944
REMARK  388  A    between atoms: _947  and  _949
REMARK  389  A    between atoms: _949  and  _950
REMARK  390  A    between atoms: _949  and  _952
REMARK  391  A    between atoms: _952  and  _953
REMARK  392  A    between atoms: _958  and  _960
REMARK  393  A    between atoms: _960  and  _961
REMARK  394  A    between atoms: _960  and  _963
REMARK  395  A    between atoms: _963  and  _964
REMARK  396  A    between atoms: _970  and  _972
REMARK  397  A    between atoms: _972  and  _973
REMARK  398  A    between atoms: _972  and  _975
REMARK  399  A    between atoms: _975  and  _976
REMARK  400  A    between atoms: _976  and  _977
REMARK  401  A    between atoms: _979  and  _981
REMARK  402  A    between atoms: _981  and  _982
REMARK  403  A    between atoms: _981  and  _984
REMARK  404  A    between atoms: _984  and  _985
REMARK  405  A    between atoms: _988  and  _990
REMARK  406  A    between atoms: _990  and  _991
REMARK  407  A    between atoms: _990  and  _993
REMARK  408  A    between atoms: _993  and  _994
REMARK  409  A    between atoms: _999  and  _1001
REMARK  410  A    between atoms: _1001  and  _1002
REMARK  411  A    between atoms: _1001  and  _1004
REMARK  412  A    between atoms: _1004  and  _1005
REMARK  413  A    between atoms: _1010  and  _1011
REMARK                            x       y       z     vdW  Elec       q    Type
REMARK                         _______ _______ _______ _____ _____    ______ ____
ROOT
ATOM      1  O   HOH     1      -2.486  -3.577  17.398  0.00  0.00    +0.000 OA
ENDROOT
TORSDOF 0
REMARK  Name = ../refined-set-2016/3drg/3drg_pocket.pdb
REMARK  413 active torsions:
REMARK  status: ('A' for Active; 'I' for Inactive)
REMARK    1  A    between atoms: _1  and  _3
REMARK    2  A    between atoms: _3  and  _4
REMARK    3  A    between atoms: _3  and  _6
REMARK    4  A    between atoms: _6  and  _7
REMARK    5  A    between atoms: _12  and  _13
REMARK    6  A    between atoms: _15  and  _17
REMARK    7  A    between atoms: _17  and  _18
REMARK    8  A    between atoms: _17  and  _20
REMARK    9  A    between atoms: _20  and  _21
REMARK   10  A    between atoms: _21  and  _22
REMARK   11  A    between atoms: _27  and  _29
REMARK   12  A    between atoms: _29  and  _30
REMARK   13  A    between atoms: _29  and  _32
REMARK   14  A    between atoms: _32  and  _33
REMARK   15  A    between atoms: _35  and  _37
REMARK   16  A    between atoms: _37  and  _38
REMARK   17  A    between atoms: _37  and  _40
REMARK   18  A    between atoms: _40  and  _41
REMARK   19  A    between atoms: _44  and  _46
REMARK   20  A    between atoms: _46  and  _47
REMARK   21  A    between atoms: _46  and  _49
REMARK   22  A    between atoms: _49  and  _50
REMARK   23  A    between atoms: _52  and  _54
REMARK   24  A    between atoms: _54  and  _55
REMARK   25  A    between atoms: _54  and  _57
REMARK   26  A    between atoms: _57  and  _58
REMARK   27  A    between atoms: _61  and  _63
REMARK   28  A    between atoms: _63  and  _64
REMARK   29  A    between atoms: _63  and  _66
REMARK   30  A    between atoms: _66  and  _67
REMARK   31  A    between atoms: _69  and  _71
REMARK   32  A    between atoms: _71  and  _72
REMARK   33  A    between atoms: _74  and  _76
REMARK   34  A    between atoms: _76  and  _77
REMARK   35  A    between atoms: _76  and  _79
REMARK   36  A    between atoms: _79  and  _80
REMARK   37  A    between atoms: _82  and  _84
REMARK   38  A    between atoms: _84  and  _85
REMARK   39  A    between atoms: _84  and  _87
REMARK   40  A    between atoms: _87  and  _88
REMARK   41  A    between atoms: _93  and  _95
REMARK   42  A    between atoms: _95  and  _96
REMARK   43  A    between atoms: _95  and  _98
REMARK   44  A    between atoms: _98  and  _99
REMARK   45  A    between atoms: _102  and  _104
REMARK   46  A    between atoms: _104  and  _105
REMARK   47  A    between atoms: _108  and  _110
REMARK   48  A    between atoms: _110  and  _111
REMARK   49  A    between atoms: _110  and  _113
REMARK   50  A    between atoms: _113  and  _114
REMARK   51  A    between atoms: _117  and  _119
REMARK   52  A    between atoms: _119  and  _120
REMARK   53  A    between atoms: _119  and  _122
REMARK   54  A    between atoms: _122  and  _123
REMARK   55  A    between atoms: _129  and  _131
REMARK   56  A    between atoms: _131  and  _132
REMARK   57  A    between atoms: _135  and  _137
REMARK   58  A    between atoms: _137  and  _138
REMARK   59  A    between atoms: _137  and  _140
REMARK   60  A    between atoms: _140  and  _141
REMARK   61  A    between atoms: _144  and  _146
REMARK   62  A    between atoms: _146  and  _147
REMARK   63  A    between atoms: _146  and  _149
REMARK   64  A    between atoms: _149  and  _150
REMARK   65  A    between atoms: _152  and  _154
REMARK   66  A    between atoms: _154  and  _155
REMARK   67  A    between atoms: _157  and  _159
REMARK   68  A    between atoms: _159  and  _160
REMARK   69  A    between atoms: _162  and  _164
REMARK   70  A    between atoms: _164  and  _165
REMARK   71  A    between atoms: _164  and  _167
REMARK   72  A    between atoms: _167  and  _168
REMARK   73  A    between atoms: _168  and  _169
REMARK   74  A    between atoms: _174  and  _176
REMARK   75  A    between atoms: _176  and  _177
REMARK   76  A    between atoms: _176  and  _179
REMARK   77  A    between atoms: _179  and  _180
REMARK   78  A    between atoms: _183  and  _185
REMARK   79  A    between atoms: _185  and  _186
REMARK   80  A    between atoms: _188  and  _190
REMARK   81  A    between atoms: _190  and  _191
REMARK   82  A    between atoms: _190  and  _193
REMARK   83  A    between atoms: _193  and  _194
REMARK   84  A    between atoms: _197  and  _199
REMARK   85  A    between atoms: _199  and  _200
REMARK   86  A    between atoms: _199  and  _202
REMARK   87  A    between atoms: _202  and  _203
REMARK   88  A    between atoms: _209  and  _211
REMARK   89  A    between atoms: _211  and  _212
REMARK   90  A    between atoms: _211  and  _214
REMARK   91  A    between atoms: _214  and  _215
REMARK   92  A    between atoms: _218  and  _220
REMARK   93  A    between atoms: _220  and  _221
REMARK   94  A    between atoms: _220  and  _223
REMARK   95  A    between atoms: _223  and  _224
REMARK   96  A    between atoms: _230  and  _232
REMARK   97  A    between atoms: _232  and  _233
REMARK   98  A    between atoms: _232  and  _235
REMARK   99  A    between atoms: _235  and  _236
REMARK  100  A    between atoms: _242  and  _244
REMARK  101  A    between atoms: _244  and  _245
REMARK  102  A    between atoms: _244  and  _247
REMARK  103  A    between atoms: _247  and  _248
REMARK  104  A    between atoms: _251  and  _253
REMARK  105  A    between atoms: _253  and  _254
REMARK  106  A    between atoms: _253  and  _256
REMARK  107  A    between atoms: _256  and  _257
REMARK  108  A    between atoms: _260  and  _262
REMARK  109  A    between atoms: _262  and  _263
REMARK  110  A    between atoms: _262  and  _265
REMARK  111  A    between atoms: _265  and  _266
REMARK  112  A    between atoms: _266  and  _267
REMARK  113  A    between atoms: _267  and  _268
REMARK  114  A    between atoms: _277  and  _279
REMARK  115  A    between atoms: _279  and  _280
REMARK  116  A    between atoms: _279  and  _282
REMARK  117  A    between atoms: _282  and  _283
REMARK  118  A    between atoms: _286  and  _288
REMARK  119  A    between atoms: _288  and  _289
REMARK  120  A    between atoms: _288  and  _291
REMARK  121  A    between atoms: _291  and  _292
REMARK  122  A    between atoms: _292  and  _293
REMARK  123  A    between atoms: _298  and  _300
REMARK  124  A    between atoms: _300  and  _301
REMARK  125  A    between atoms: _300  and  _303
REMARK  126  A    between atoms: _303  and  _304
REMARK  127  A    between atoms: _306  and  _308
REMARK  128  A    between atoms: _308  and  _309
REMARK  129  A    between atoms: _311  and  _313
REMARK  130  A    between atoms: _313  and  _314
REMARK  131  A    between atoms: _313  and  _316
REMARK  132  A    between atoms: _316  and  _317
REMARK  133  A    between atoms: _322  and  _324
REMARK  134  A    between atoms: _324  and  _325
REMARK  135  A    between atoms: _327  and  _329
REMARK  136  A    between atoms: _329  and  _330
REMARK  137  A    between atoms: _329  and  _332
REMARK  138  A    between atoms: _332  and  _333
REMARK  139  A    between atoms: _339  and  _341
REMARK  140  A    between atoms: _341  and  _342
REMARK  141  A    between atoms: _341  and  _344
REMARK  142  A    between atoms: _344  and  _345
REMARK  143  A    between atoms: _348  and  _350
REMARK  144  A    between atoms: _350  and  _351
REMARK  145  A    between atoms: _350  and  _353
REMARK  146  A    between atoms: _353  and  _354
REMARK  147  A    between atoms: _354  and  _355
REMARK  148  A    between atoms: _358  and  _360
REMARK  149  A    between atoms: _360  and  _361
REMARK  150  A    between atoms: _360  and  _363
REMARK  151  A    between atoms: _363  and  _364
REMARK  152  A    between atoms: _367  and  _369
REMARK  153  A    between atoms: _369  and  _370
REMARK  154  A    between atoms: _369  and  _372
REMARK  155  A    between atoms: _375  and  _377
REMARK  156  A    between atoms: _377  and  _378
REMARK  157  A    between atoms: _377  and  _380
REMARK  158  A    between atoms: _380  and  _381
REMARK  159  A    between atoms: _384  and  _386
REMARK  160  A    between atoms: _386  and  _387
REMARK  161  A    between atoms: _386  and  _389
REMARK  162  A    between atoms: _389  and  _390
REMARK  163  A    between atoms: _395  and  _397
REMARK  164  A    between atoms: _397  and  _398
REMARK  165  A    between atoms: _400  and  _402
REMARK  166  A    between atoms: _402  and  _403
REMARK  167  A    between atoms: _402  and  _405
REMARK  168  A    between atoms: _405  and  _406
REMARK  169  A    between atoms: _406  and  _407
REMARK  170  A    between atoms: _409  and  _411
REMARK  171  A    between atoms: _411  and  _412
REMARK  172  A    between atoms: _411  and  _414
REMARK  173  A    between atoms: _417  and  _419
REMARK  174  A    between atoms: _419  and  _420
REMARK  175  A    between atoms: _419  and  _422
REMARK  176  A    between atoms: _422  and  _423
REMARK  177  A    between atoms: _425  and  _427
REMARK  178  A    between atoms: _427  and  _428
REMARK  179  A    between atoms: _427  and  _430
REMARK  180  A    between atoms: _430  and  _431
REMARK  181  A    between atoms: _433  and  _435
REMARK  182  A    between atoms: _435  and  _436
REMARK  183  A    between atoms: _435  and  _438
REMARK  184  A    between atoms: _438  and  _439
REMARK  185  A    between atoms: _439  and  _440
REMARK  186  A    between atoms: _445  and  _447
REMARK  187  A    between atoms: _447  and  _448
REMARK  188  A    between atoms: _451  and  _453
REMARK  189  A    between atoms: _453  and  _454
REMARK  190  A    between atoms: _453  and  _456
REMARK  191  A    between atoms: _456  and  _457
REMARK  192  A    between atoms: _457  and  _458
REMARK  193  A    between atoms: _460  and  _462
REMARK  194  A    between atoms: _462  and  _463
REMARK  195  A    between atoms: _462  and  _465
REMARK  196  A    between atoms: _465  and  _466
REMARK  197  A    between atoms: _471  and  _472
REMARK  198  A    between atoms: _474  and  _476
REMARK  199  A    between atoms: _476  and  _477
REMARK  200  A    between atoms: _476  and  _479
REMARK  201  A    between atoms: _479  and  _480
REMARK  202  A    between atoms: _483  and  _485
REMARK  203  A    between atoms: _485  and  _486
REMARK  204  A    between atoms: _485  and  _488
REMARK  205  A    between atoms: _488  and  _489
REMARK  206  A    between atoms: _491  and  _493
REMARK  207  A    between atoms: _493  and  _494
REMARK  208  A    between atoms: _493  and  _496
REMARK  209  A    between atoms: _496  and  _497
REMARK  210  A    between atoms: _500  and  _502
REMARK  211  A    between atoms: _502  and  _503
REMARK  212  A    between atoms: _502  and  _505
REMARK  213  A    between atoms: _505  and  _506
REMARK  214  A    between atoms: _506  and  _507
REMARK  215  A    between atoms: _509  and  _511
REMARK  216  A    between atoms: _511  and  _512
REMARK  217  A    between atoms: _511  and  _514
REMARK  218  A    between atoms: _514  and  _515
REMARK  219  A    between atoms: _520  and  _521
REMARK  220  A    between atoms: _523  and  _525
REMARK  221  A    between atoms: _525  and  _526
REMARK  222  A    between atoms: _525  and  _528
REMARK  223  A    between atoms: _528  and  _529
REMARK  224  A    between atoms: _529  and  _530
REMARK  225  A    between atoms: _530  and  _531
REMARK  226  A    between atoms: _540  and  _542
REMARK  227  A    between atoms: _542  and  _543
REMARK  228  A    between atoms: _542  and  _545
REMARK  229  A    between atoms: _545  and  _546
REMARK  230  A    between atoms: _548  and  _550
REMARK  231  A    between atoms: _550  and  _551
REMARK  232  A    between atoms: _550  and  _553
REMARK  233  A    between atoms: _553  and  _554
REMARK  234  A    between atoms: _559  and  _560
REMARK  235  A    between atoms: _562  and  _564
REMARK  236  A    between atoms: _564  and  _565
REMARK  237  A    between atoms: _568  and  _570
REMARK  238  A    between atoms: _570  and  _571
REMARK  239  A    between atoms: _574  and  _576
REMARK  240  A    between atoms: _576  and  _577
REMARK  241  A    between atoms: _576  and  _579
REMARK  242  A    between atoms: _579  and  _580
REMARK  243  A    between atoms: _580  and  _581
REMARK  244  A    between atoms: _581  and  _582
REMARK  245  A    between atoms: _591  and  _593
REMARK  246  A    between atoms: _593  and  _594
REMARK  247  A    between atoms: _593  and  _596
REMARK  248  A    between atoms: _599  and  _601
REMARK  249  A    between atoms: _601  and  _602
REMARK  250  A    between atoms: _604  and  _606
REMARK  251  A    between atoms: _606  and  _607
REMARK  252  A    between atoms: _606  and  _609
REMARK  253  A    between atoms: _609  and  _610
REMARK  254  A    between atoms: _613  and  _615
REMARK  255  A    between atoms: _615  and  _616
REMARK  256  A    between atoms: _619  and  _621
REMARK  257  A    between atoms: _621  and  _622
REMARK  258  A    between atoms: _621  and  _624
REMARK  259  A    between atoms: _624  and  _625
REMARK  260  A    between atoms: _628  and  _630
REMARK  261  A    between atoms: _630  and  _631
REMARK  262  A    between atoms: _630  and  _633
REMARK  263  A    between atoms: _633  and  _634
REMARK  264  A    between atoms: _639  and  _640
REMARK  265  A    between atoms: _642  and  _644
REMARK  266  A    between atoms: _644  and  _645
REMARK  267  A    between atoms: _644  and  _647
REMARK  268  A    between atoms: _647  and  _648
REMARK  269  A    between atoms: _648  and  _649
REMARK  270  A    between atoms: _651  and  _653
REMARK  271  A    between atoms: _653  and  _654
REMARK  272  A    between atoms: _653  and  _656
REMARK  273  A    between atoms: _656  and  _657
REMARK  274  A    between atoms: _657  and  _658
REMARK  275  A    between atoms: _661  and  _663
REMARK  276  A    between atoms: _663  and  _664
REMARK  277  A    between atoms: _663  and  _666
REMARK  278  A    between atoms: _666  and  _667
REMARK  279  A    between atoms: _673  and  _675
REMARK  280  A    between atoms: _675  and  _676
REMARK  281  A    between atoms: _675  and  _678
REMARK  282  A    between atoms: _678  and  _679
REMARK  283  A    between atoms: _684  and  _686
REMARK  284  A    between atoms: _686  and  _687
REMARK  285  A    between atoms: _686  and  _689
REMARK  286  A    between atoms: _689  and  _690
REMARK  287  A    between atoms: _700  and  _702
REMARK  288  A    between atoms: _702  and  _703
REMARK  289  A    between atoms: _702  and  _705
REMARK  290  A    between atoms: _708  and  _710
REMARK  291  A    between atoms: _710  and  _711
REMARK  292  A    between atoms: _710  and  _713
REMARK  293  A    between atoms: _713  and  _714
REMARK  294  A    between atoms: _717  and  _719
REMARK  295  A    between atoms: _719  and  _720
REMARK  296  A    between atoms: _719  and  _722
REMARK  297  A    between atoms: _722  and  _723
REMARK  298  A    between atoms: _723  and  _724
REMARK  299  A    between atoms: _726  and  _728
REMARK  300  A    between atoms: _728  and  _729
REMARK  301  A    between atoms: _728  and  _731
REMARK  302  A    between atoms: _731  and  _732
REMARK  303  A    between atoms: _735  and  _737
REMARK  304  A    between atoms: _737  and  _738
REMARK  305  A    between atoms: _737  and  _740
REMARK  306  A    between atoms: _740  and  _741
REMARK  307  A    between atoms: _744  and  _746
REMARK  308  A    between atoms: _746  and  _747
REMARK  309  A    between atoms: _746  and  _749
REMARK  310  A    between atoms: _749  and  _750
REMARK  311  A    between atoms: _753  and  _755
REMARK  312  A    between atoms: _755  and  _756
REMARK  313  A    between atoms: _755  and  _758
REMARK  314  A    between atoms: _758  and  _759
REMARK  315  A    between atoms: _762  and  _764
REMARK  316  A    between atoms: _764  and  _765
REMARK  317  A    between atoms: _767  and  _769
REMARK  318  A    between atoms: _769  and  _770
REMARK  319  A    between atoms: _769  and  _772
REMARK  320  A    between atoms: _772  and  _773
REMARK  321  A    between atoms: _775  and  _777
REMARK  322  A    between atoms: _777  and  _778
REMARK  323  A    between atoms: _777  and  _780
REMARK  324  A    between atoms: _780  and  _781
REMARK  325  A    between atoms: _791  and  _793
REMARK  326  A    between atoms: _793  and  _794
REMARK  327  A    between atoms: _793  and  _796
REMARK  328  A    between atoms: _796  and  _797
REMARK  329  A    between atoms: _799  and  _801
REMARK  330  A    between atoms: _801  and  _802
REMARK  331  A    between atoms: _801  and  _804
REMARK  332  A    between atoms: _804  and  _805
REMARK  333  A    between atoms: _808  and  _810
REMARK  334  A    between atoms: _810  and  _811
REMARK  335  A    between atoms: _814  and  _816
REMARK  336  A    between atoms: _816  and  _817
REMARK  337  A    between atoms: _816  and  _819
REMARK  338  A    between atoms: _819  and  _820
REMARK  339  A    between atoms: _822  and  _824
REMARK  340  A    between atoms: _824  and  _825
REMARK  341  A    between atoms: _824  and  _827
REMARK  342  A    between atoms: _827  and  _828
REMARK  343  A    between atoms: _828  and  _829
REMARK  344  A    between atoms: _832  and  _834
REMARK  345  A    between atoms: _834  and  _835
REMARK  346  A    between atoms: _834  and  _837
REMARK  347  A    between atoms: _837  and  _838
REMARK  348  A    between atoms: _840  and  _842
REMARK  349  A    between atoms: _842  and  _843
REMARK  350  A    between atoms: _842  and  _845
REMARK  351  A    between atoms: _845  and  _846
REMARK  352  A    between atoms: _846  and  _847
REMARK  353  A    between atoms: _852  and  _854
REMARK  354  A    between atoms: _854  and  _855
REMARK  355  A    between atoms: _854  and  _857
REMARK  356  A    between atoms: _857  and  _858
REMARK  357  A    between atoms: _858  and  _859
REMARK  358  A    between atoms: _864  and  _866
REMARK  359  A    between atoms: _866  and  _867
REMARK  360  A    between atoms: _866  and  _869
REMARK  361  A    between atoms: _869  and  _870
REMARK  362  A    between atoms: _873  and  _875
REMARK  363  A    between atoms: _875  and  _876
REMARK  364  A    between atoms: _875  and  _878
REMARK  365  A    between atoms: _878  and  _879
REMARK  366  A    between atoms: _882  and  _884
REMARK  367  A    between atoms: _884  and  _885
REMARK  368  A    between atoms: _884  and  _887
REMARK  369  A    between atoms: _887  and  _888
REMARK  370  A    between atoms: _895  and  _896
REMARK  371  A    between atoms: _901  and  _903
REMARK  372  A    between atoms: _903  and  _904
REMARK  373  A    between atoms: _903  and  _906
REMARK  374  A    between atoms: _906  and  _907
REMARK  375  A    between atoms: _912  and  _913
REMARK  376  A    between atoms: _915  and  _917
REMARK  377  A    between atoms: _917  and  _918
REMARK  378  A    between atoms: _917  and  _920
REMARK  379  A    between atoms: _920  and  _921
REMARK  380  A    between atoms: _926  and  _928
REMARK  381  A    between atoms: _928  and  _929
REMARK  382  A    between atoms: _928  and  _931
REMARK  383  A    between atoms: _931  and  _932
REMARK  384  A    between atoms: _938  and  _940
REMARK  385  A    between atoms: _940  and  _941
REMARK  386  A    between atoms: _940  and  _943
REMARK  387  A    between atoms: _943  and  _944
REMARK  388  A    between atoms: _947  and  _949
REMARK  389  A    between atoms: _949  and  _950
REMARK  390  A    between atoms: _949  and  _952
REMARK  391  A    between atoms: _952  and  _953
REMARK  392  A    between atoms: _958  and  _960
REMARK  393  A    between atoms: _960  and  _961
REMARK  394  A    between atoms: _960  and  _963
REMARK  395  A    between atoms: _963  and  _964
REMARK  396  A    between atoms: _970  and  _972
REMARK  397  A    between atoms: _972  and  _973
REMARK  398  A    between atoms: _972  and  _975
REMARK  399  A    between atoms: _975  and  _976
REMARK  400  A    between atoms: _976  and  _977
REMARK  401  A    between atoms: _979  and  _981
REMARK  402  A    between atoms: _981  and  _982
REMARK  403  A    between atoms: _981  and  _984
REMARK  404  A    between atoms: _984  and  _985
REMARK  405  A    between atoms: _988  and  _990
REMARK  406  A    between atoms: _990  and  _991
REMARK  407  A    between atoms: _990  and  _993
REMARK  408  A    between atoms: _993  and  _994
REMARK  409  A    between atoms: _999  and  _1001
REMARK  410  A    between atoms: _1001  and  _1002
REMARK  411  A    between atoms: _1001  and  _1004
REMARK  412  A    between atoms: _1004  and  _1005
REMARK  413  A    between atoms: _1010  and  _1011
REMARK                            x       y       z     vdW  Elec       q    Type
REMARK                         _______ _______ _______ _____ _____    ______ ____
ROOT
ATOM      1  O   HOH     1     -18.567  -3.061  15.510  0.00  0.00    +0.000 OA
ENDROOT
TORSDOF 0
REMARK  Name = ../refined-set-2016/3drg/3drg_pocket.pdb
REMARK  413 active torsions:
REMARK  status: ('A' for Active; 'I' for Inactive)
REMARK    1  A    between atoms: _1  and  _3
REMARK    2  A    between atoms: _3  and  _4
REMARK    3  A    between atoms: _3  and  _6
REMARK    4  A    between atoms: _6  and  _7
REMARK    5  A    between atoms: _12  and  _13
REMARK    6  A    between atoms: _15  and  _17
REMARK    7  A    between atoms: _17  and  _18
REMARK    8  A    between atoms: _17  and  _20
REMARK    9  A    between atoms: _20  and  _21
REMARK   10  A    between atoms: _21  and  _22
REMARK   11  A    between atoms: _27  and  _29
REMARK   12  A    between atoms: _29  and  _30
REMARK   13  A    between atoms: _29  and  _32
REMARK   14  A    between atoms: _32  and  _33
REMARK   15  A    between atoms: _35  and  _37
REMARK   16  A    between atoms: _37  and  _38
REMARK   17  A    between atoms: _37  and  _40
REMARK   18  A    between atoms: _40  and  _41
REMARK   19  A    between atoms: _44  and  _46
REMARK   20  A    between atoms: _46  and  _47
REMARK   21  A    between atoms: _46  and  _49
REMARK   22  A    between atoms: _49  and  _50
REMARK   23  A    between atoms: _52  and  _54
REMARK   24  A    between atoms: _54  and  _55
REMARK   25  A    between atoms: _54  and  _57
REMARK   26  A    between atoms: _57  and  _58
REMARK   27  A    between atoms: _61  and  _63
REMARK   28  A    between atoms: _63  and  _64
REMARK   29  A    between atoms: _63  and  _66
REMARK   30  A    between atoms: _66  and  _67
REMARK   31  A    between atoms: _69  and  _71
REMARK   32  A    between atoms: _71  and  _72
REMARK   33  A    between atoms: _74  and  _76
REMARK   34  A    between atoms: _76  and  _77
REMARK   35  A    between atoms: _76  and  _79
REMARK   36  A    between atoms: _79  and  _80
REMARK   37  A    between atoms: _82  and  _84
REMARK   38  A    between atoms: _84  and  _85
REMARK   39  A    between atoms: _84  and  _87
REMARK   40  A    between atoms: _87  and  _88
REMARK   41  A    between atoms: _93  and  _95
REMARK   42  A    between atoms: _95  and  _96
REMARK   43  A    between atoms: _95  and  _98
REMARK   44  A    between atoms: _98  and  _99
REMARK   45  A    between atoms: _102  and  _104
REMARK   46  A    between atoms: _104  and  _105
REMARK   47  A    between atoms: _108  and  _110
REMARK   48  A    between atoms: _110  and  _111
REMARK   49  A    between atoms: _110  and  _113
REMARK   50  A    between atoms: _113  and  _114
REMARK   51  A    between atoms: _117  and  _119
REMARK   52  A    between atoms: _119  and  _120
REMARK   53  A    between atoms: _119  and  _122
REMARK   54  A    between atoms: _122  and  _123
REMARK   55  A    between atoms: _129  and  _131
REMARK   56  A    between atoms: _131  and  _132
REMARK   57  A    between atoms: _135  and  _137
REMARK   58  A    between atoms: _137  and  _138
REMARK   59  A    between atoms: _137  and  _140
REMARK   60  A    between atoms: _140  and  _141
REMARK   61  A    between atoms: _144  and  _146
REMARK   62  A    between atoms: _146  and  _147
REMARK   63  A    between atoms: _146  and  _149
REMARK   64  A    between atoms: _149  and  _150
REMARK   65  A    between atoms: _152  and  _154
REMARK   66  A    between atoms: _154  and  _155
REMARK   67  A    between atoms: _157  and  _159
REMARK   68  A    between atoms: _159  and  _160
REMARK   69  A    between atoms: _162  and  _164
REMARK   70  A    between atoms: _164  and  _165
REMARK   71  A    between atoms: _164  and  _167
REMARK   72  A    between atoms: _167  and  _168
REMARK   73  A    between atoms: _168  and  _169
REMARK   74  A    between atoms: _174  and  _176
REMARK   75  A    between atoms: _176  and  _177
REMARK   76  A    between atoms: _176  and  _179
REMARK   77  A    between atoms: _179  and  _180
REMARK   78  A    between atoms: _183  and  _185
REMARK   79  A    between atoms: _185  and  _186
REMARK   80  A    between atoms: _188  and  _190
REMARK   81  A    between atoms: _190  and  _191
REMARK   82  A    between atoms: _190  and  _193
REMARK   83  A    between atoms: _193  and  _194
REMARK   84  A    between atoms: _197  and  _199
REMARK   85  A    between atoms: _199  and  _200
REMARK   86  A    between atoms: _199  and  _202
REMARK   87  A    between atoms: _202  and  _203
REMARK   88  A    between atoms: _209  and  _211
REMARK   89  A    between atoms: _211  and  _212
REMARK   90  A    between atoms: _211  and  _214
REMARK   91  A    between atoms: _214  and  _215
REMARK   92  A    between atoms: _218  and  _220
REMARK   93  A    between atoms: _220  and  _221
REMARK   94  A    between atoms: _220  and  _223
REMARK   95  A    between atoms: _223  and  _224
REMARK   96  A    between atoms: _230  and  _232
REMARK   97  A    between atoms: _232  and  _233
REMARK   98  A    between atoms: _232  and  _235
REMARK   99  A    between atoms: _235  and  _236
REMARK  100  A    between atoms: _242  and  _244
REMARK  101  A    between atoms: _244  and  _245
REMARK  102  A    between atoms: _244  and  _247
REMARK  103  A    between atoms: _247  and  _248
REMARK  104  A    between atoms: _251  and  _253
REMARK  105  A    between atoms: _253  and  _254
REMARK  106  A    between atoms: _253  and  _256
REMARK  107  A    between atoms: _256  and  _257
REMARK  108  A    between atoms: _260  and  _262
REMARK  109  A    between atoms: _262  and  _263
REMARK  110  A    between atoms: _262  and  _265
REMARK  111  A    between atoms: _265  and  _266
REMARK  112  A    between atoms: _266  and  _267
REMARK  113  A    between atoms: _267  and  _268
REMARK  114  A    between atoms: _277  and  _279
REMARK  115  A    between atoms: _279  and  _280
REMARK  116  A    between atoms: _279  and  _282
REMARK  117  A    between atoms: _282  and  _283
REMARK  118  A    between atoms: _286  and  _288
REMARK  119  A    between atoms: _288  and  _289
REMARK  120  A    between atoms: _288  and  _291
REMARK  121  A    between atoms: _291  and  _292
REMARK  122  A    between atoms: _292  and  _293
REMARK  123  A    between atoms: _298  and  _300
REMARK  124  A    between atoms: _300  and  _301
REMARK  125  A    between atoms: _300  and  _303
REMARK  126  A    between atoms: _303  and  _304
REMARK  127  A    between atoms: _306  and  _308
REMARK  128  A    between atoms: _308  and  _309
REMARK  129  A    between atoms: _311  and  _313
REMARK  130  A    between atoms: _313  and  _314
REMARK  131  A    between atoms: _313  and  _316
REMARK  132  A    between atoms: _316  and  _317
REMARK  133  A    between atoms: _322  and  _324
REMARK  134  A    between atoms: _324  and  _325
REMARK  135  A    between atoms: _327  and  _329
REMARK  136  A    between atoms: _329  and  _330
REMARK  137  A    between atoms: _329  and  _332
REMARK  138  A    between atoms: _332  and  _333
REMARK  139  A    between atoms: _339  and  _341
REMARK  140  A    between atoms: _341  and  _342
REMARK  141  A    between atoms: _341  and  _344
REMARK  142  A    between atoms: _344  and  _345
REMARK  143  A    between atoms: _348  and  _350
REMARK  144  A    between atoms: _350  and  _351
REMARK  145  A    between atoms: _350  and  _353
REMARK  146  A    between atoms: _353  and  _354
REMARK  147  A    between atoms: _354  and  _355
REMARK  148  A    between atoms: _358  and  _360
REMARK  149  A    between atoms: _360  and  _361
REMARK  150  A    between atoms: _360  and  _363
REMARK  151  A    between atoms: _363  and  _364
REMARK  152  A    between atoms: _367  and  _369
REMARK  153  A    between atoms: _369  and  _370
REMARK  154  A    between atoms: _369  and  _372
REMARK  155  A    between atoms: _375  and  _377
REMARK  156  A    between atoms: _377  and  _378
REMARK  157  A    between atoms: _377  and  _380
REMARK  158  A    between atoms: _380  and  _381
REMARK  159  A    between atoms: _384  and  _386
REMARK  160  A    between atoms: _386  and  _387
REMARK  161  A    between atoms: _386  and  _389
REMARK  162  A    between atoms: _389  and  _390
REMARK  163  A    between atoms: _395  and  _397
REMARK  164  A    between atoms: _397  and  _398
REMARK  165  A    between atoms: _400  and  _402
REMARK  166  A    between atoms: _402  and  _403
REMARK  167  A    between atoms: _402  and  _405
REMARK  168  A    between atoms: _405  and  _406
REMARK  169  A    between atoms: _406  and  _407
REMARK  170  A    between atoms: _409  and  _411
REMARK  171  A    between atoms: _411  and  _412
REMARK  172  A    between atoms: _411  and  _414
REMARK  173  A    between atoms: _417  and  _419
REMARK  174  A    between atoms: _419  and  _420
REMARK  175  A    between atoms: _419  and  _422
REMARK  176  A    between atoms: _422  and  _423
REMARK  177  A    between atoms: _425  and  _427
REMARK  178  A    between atoms: _427  and  _428
REMARK  179  A    between atoms: _427  and  _430
REMARK  180  A    between atoms: _430  and  _431
REMARK  181  A    between atoms: _433  and  _435
REMARK  182  A    between atoms: _435  and  _436
REMARK  183  A    between atoms: _435  and  _438
REMARK  184  A    between atoms: _438  and  _439
REMARK  185  A    between atoms: _439  and  _440
REMARK  186  A    between atoms: _445  and  _447
REMARK  187  A    between atoms: _447  and  _448
REMARK  188  A    between atoms: _451  and  _453
REMARK  189  A    between atoms: _453  and  _454
REMARK  190  A    between atoms: _453  and  _456
REMARK  191  A    between atoms: _456  and  _457
REMARK  192  A    between atoms: _457  and  _458
REMARK  193  A    between atoms: _460  and  _462
REMARK  194  A    between atoms: _462  and  _463
REMARK  195  A    between atoms: _462  and  _465
REMARK  196  A    between atoms: _465  and  _466
REMARK  197  A    between atoms: _471  and  _472
REMARK  198  A    between atoms: _474  and  _476
REMARK  199  A    between atoms: _476  and  _477
REMARK  200  A    between atoms: _476  and  _479
REMARK  201  A    between atoms: _479  and  _480
REMARK  202  A    between atoms: _483  and  _485
REMARK  203  A    between atoms: _485  and  _486
REMARK  204  A    between atoms: _485  and  _488
REMARK  205  A    between atoms: _488  and  _489
REMARK  206  A    between atoms: _491  and  _493
REMARK  207  A    between atoms: _493  and  _494
REMARK  208  A    between atoms: _493  and  _496
REMARK  209  A    between atoms: _496  and  _497
REMARK  210  A    between atoms: _500  and  _502
REMARK  211  A    between atoms: _502  and  _503
REMARK  212  A    between atoms: _502  and  _505
REMARK  213  A    between atoms: _505  and  _506
REMARK  214  A    between atoms: _506  and  _507
REMARK  215  A    between atoms: _509  and  _511
REMARK  216  A    between atoms: _511  and  _512
REMARK  217  A    between atoms: _511  and  _514
REMARK  218  A    between atoms: _514  and  _515
REMARK  219  A    between atoms: _520  and  _521
REMARK  220  A    between atoms: _523  and  _525
REMARK  221  A    between atoms: _525  and  _526
REMARK  222  A    between atoms: _525  and  _528
REMARK  223  A    between atoms: _528  and  _529
REMARK  224  A    between atoms: _529  and  _530
REMARK  225  A    between atoms: _530  and  _531
REMARK  226  A    between atoms: _540  and  _542
REMARK  227  A    between atoms: _542  and  _543
REMARK  228  A    between atoms: _542  and  _545
REMARK  229  A    between atoms: _545  and  _546
REMARK  230  A    between atoms: _548  and  _550
REMARK  231  A    between atoms: _550  and  _551
REMARK  232  A    between atoms: _550  and  _553
REMARK  233  A    between atoms: _553  and  _554
REMARK  234  A    between atoms: _559  and  _560
REMARK  235  A    between atoms: _562  and  _564
REMARK  236  A    between atoms: _564  and  _565
REMARK  237  A    between atoms: _568  and  _570
REMARK  238  A    between atoms: _570  and  _571
REMARK  239  A    between atoms: _574  and  _576
REMARK  240  A    between atoms: _576  and  _577
REMARK  241  A    between atoms: _576  and  _579
REMARK  242  A    between atoms: _579  and  _580
REMARK  243  A    between atoms: _580  and  _581
REMARK  244  A    between atoms: _581  and  _582
REMARK  245  A    between atoms: _591  and  _593
REMARK  246  A    between atoms: _593  and  _594
REMARK  247  A    between atoms: _593  and  _596
REMARK  248  A    between atoms: _599  and  _601
REMARK  249  A    between atoms: _601  and  _602
REMARK  250  A    between atoms: _604  and  _606
REMARK  251  A    between atoms: _606  and  _607
REMARK  252  A    between atoms: _606  and  _609
REMARK  253  A    between atoms: _609  and  _610
REMARK  254  A    between atoms: _613  and  _615
REMARK  255  A    between atoms: _615  and  _616
REMARK  256  A    between atoms: _619  and  _621
REMARK  257  A    between atoms: _621  and  _622
REMARK  258  A    between atoms: _621  and  _624
REMARK  259  A    between atoms: _624  and  _625
REMARK  260  A    between atoms: _628  and  _630
REMARK  261  A    between atoms: _630  and  _631
REMARK  262  A    between atoms: _630  and  _633
REMARK  263  A    between atoms: _633  and  _634
REMARK  264  A    between atoms: _639  and  _640
REMARK  265  A    between atoms: _642  and  _644
REMARK  266  A    between atoms: _644  and  _645
REMARK  267  A    between atoms: _644  and  _647
REMARK  268  A    between atoms: _647  and  _648
REMARK  269  A    between atoms: _648  and  _649
REMARK  270  A    between atoms: _651  and  _653
REMARK  271  A    between atoms: _653  and  _654
REMARK  272  A    between atoms: _653  and  _656
REMARK  273  A    between atoms: _656  and  _657
REMARK  274  A    between atoms: _657  and  _658
REMARK  275  A    between atoms: _661  and  _663
REMARK  276  A    between atoms: _663  and  _664
REMARK  277  A    between atoms: _663  and  _666
REMARK  278  A    between atoms: _666  and  _667
REMARK  279  A    between atoms: _673  and  _675
REMARK  280  A    between atoms: _675  and  _676
REMARK  281  A    between atoms: _675  and  _678
REMARK  282  A    between atoms: _678  and  _679
REMARK  283  A    between atoms: _684  and  _686
REMARK  284  A    between atoms: _686  and  _687
REMARK  285  A    between atoms: _686  and  _689
REMARK  286  A    between atoms: _689  and  _690
REMARK  287  A    between atoms: _700  and  _702
REMARK  288  A    between atoms: _702  and  _703
REMARK  289  A    between atoms: _702  and  _705
REMARK  290  A    between atoms: _708  and  _710
REMARK  291  A    between atoms: _710  and  _711
REMARK  292  A    between atoms: _710  and  _713
REMARK  293  A    between atoms: _713  and  _714
REMARK  294  A    between atoms: _717  and  _719
REMARK  295  A    between atoms: _719  and  _720
REMARK  296  A    between atoms: _719  and  _722
REMARK  297  A    between atoms: _722  and  _723
REMARK  298  A    between atoms: _723  and  _724
REMARK  299  A    between atoms: _726  and  _728
REMARK  300  A    between atoms: _728  and  _729
REMARK  301  A    between atoms: _728  and  _731
REMARK  302  A    between atoms: _731  and  _732
REMARK  303  A    between atoms: _735  and  _737
REMARK  304  A    between atoms: _737  and  _738
REMARK  305  A    between atoms: _737  and  _740
REMARK  306  A    between atoms: _740  and  _741
REMARK  307  A    between atoms: _744  and  _746
REMARK  308  A    between atoms: _746  and  _747
REMARK  309  A    between atoms: _746  and  _749
REMARK  310  A    between atoms: _749  and  _750
REMARK  311  A    between atoms: _753  and  _755
REMARK  312  A    between atoms: _755  and  _756
REMARK  313  A    between atoms: _755  and  _758
REMARK  314  A    between atoms: _758  and  _759
REMARK  315  A    between atoms: _762  and  _764
REMARK  316  A    between atoms: _764  and  _765
REMARK  317  A    between atoms: _767  and  _769
REMARK  318  A    between atoms: _769  and  _770
REMARK  319  A    between atoms: _769  and  _772
REMARK  320  A    between atoms: _772  and  _773
REMARK  321  A    between atoms: _775  and  _777
REMARK  322  A    between atoms: _777  and  _778
REMARK  323  A    between atoms: _777  and  _780
REMARK  324  A    between atoms: _780  and  _781
REMARK  325  A    between atoms: _791  and  _793
REMARK  326  A    between atoms: _793  and  _794
REMARK  327  A    between atoms: _793  and  _796
REMARK  328  A    between atoms: _796  and  _797
REMARK  329  A    between atoms: _799  and  _801
REMARK  330  A    between atoms: _801  and  _802
REMARK  331  A    between atoms: _801  and  _804
REMARK  332  A    between atoms: _804  and  _805
REMARK  333  A    between atoms: _808  and  _810
REMARK  334  A    between atoms: _810  and  _811
REMARK  335  A    between atoms: _814  and  _816
REMARK  336  A    between atoms: _816  and  _817
REMARK  337  A    between atoms: _816  and  _819
REMARK  338  A    between atoms: _819  and  _820
REMARK  339  A    between atoms: _822  and  _824
REMARK  340  A    between atoms: _824  and  _825
REMARK  341  A    between atoms: _824  and  _827
REMARK  342  A    between atoms: _827  and  _828
REMARK  343  A    between atoms: _828  and  _829
REMARK  344  A    between atoms: _832  and  _834
REMARK  345  A    between atoms: _834  and  _835
REMARK  346  A    between atoms: _834  and  _837
REMARK  347  A    between atoms: _837  and  _838
REMARK  348  A    between atoms: _840  and  _842
REMARK  349  A    between atoms: _842  and  _843
REMARK  350  A    between atoms: _842  and  _845
REMARK  351  A    between atoms: _845  and  _846
REMARK  352  A    between atoms: _846  and  _847
REMARK  353  A    between atoms: _852  and  _854
REMARK  354  A    between atoms: _854  and  _855
REMARK  355  A    between atoms: _854  and  _857
REMARK  356  A    between atoms: _857  and  _858
REMARK  357  A    between atoms: _858  and  _859
REMARK  358  A    between atoms: _864  and  _866
REMARK  359  A    between atoms: _866  and  _867
REMARK  360  A    between atoms: _866  and  _869
REMARK  361  A    between atoms: _869  and  _870
REMARK  362  A    between atoms: _873  and  _875
REMARK  363  A    between atoms: _875  and  _876
REMARK  364  A    between atoms: _875  and  _878
REMARK  365  A    between atoms: _878  and  _879
REMARK  366  A    between atoms: _882  and  _884
REMARK  367  A    between atoms: _884  and  _885
REMARK  368  A    between atoms: _884  and  _887
REMARK  369  A    between atoms: _887  and  _888
REMARK  370  A    between atoms: _895  and  _896
REMARK  371  A    between atoms: _901  and  _903
REMARK  372  A    between atoms: _903  and  _904
REMARK  373  A    between atoms: _903  and  _906
REMARK  374  A    between atoms: _906  and  _907
REMARK  375  A    between atoms: _912  and  _913
REMARK  376  A    between atoms: _915  and  _917
REMARK  377  A    between atoms: _917  and  _918
REMARK  378  A    between atoms: _917  and  _920
REMARK  379  A    between atoms: _920  and  _921
REMARK  380  A    between atoms: _926  and  _928
REMARK  381  A    between atoms: _928  and  _929
REMARK  382  A    between atoms: _928  and  _931
REMARK  383  A    between atoms: _931  and  _932
REMARK  384  A    between atoms: _938  and  _940
REMARK  385  A    between atoms: _940  and  _941
REMARK  386  A    between atoms: _940  and  _943
REMARK  387  A    between atoms: _943  and  _944
REMARK  388  A    between atoms: _947  and  _949
REMARK  389  A    between atoms: _949  and  _950
REMARK  390  A    between atoms: _949  and  _952
REMARK  391  A    between atoms: _952  and  _953
REMARK  392  A    between atoms: _958  and  _960
REMARK  393  A    between atoms: _960  and  _961
REMARK  394  A    between atoms: _960  and  _963
REMARK  395  A    between atoms: _963  and  _964
REMARK  396  A    between atoms: _970  and  _972
REMARK  397  A    between atoms: _972  and  _973
REMARK  398  A    between atoms: _972  and  _975
REMARK  399  A    between atoms: _975  and  _976
REMARK  400  A    between atoms: _976  and  _977
REMARK  401  A    between atoms: _979  and  _981
REMARK  402  A    between atoms: _981  and  _982
REMARK  403  A    between atoms: _981  and  _984
REMARK  404  A    between atoms: _984  and  _985
REMARK  405  A    between atoms: _988  and  _990
REMARK  406  A    between atoms: _990  and  _991
REMARK  407  A    between atoms: _990  and  _993
REMARK  408  A    between atoms: _993  and  _994
REMARK  409  A    between atoms: _999  and  _1001
REMARK  410  A    between atoms: _1001  and  _1002
REMARK  411  A    between atoms: _1001  and  _1004
REMARK  412  A    between atoms: _1004  and  _1005
REMARK  413  A    between atoms: _1010  and  _1011
REMARK                            x       y       z     vdW  Elec       q    Type
REMARK                         _______ _______ _______ _____ _____    ______ ____
ROOT
ATOM      1  O   HOH     1     -11.245 -11.162  10.175  0.00  0.00    +0.000 OA
ENDROOT
TORSDOF 0
REMARK  Name = ../refined-set-2016/3drg/3drg_pocket.pdb
REMARK  413 active torsions:
REMARK  status: ('A' for Active; 'I' for Inactive)
REMARK    1  A    between atoms: _1  and  _3
REMARK    2  A    between atoms: _3  and  _4
REMARK    3  A    between atoms: _3  and  _6
REMARK    4  A    between atoms: _6  and  _7
REMARK    5  A    between atoms: _12  and  _13
REMARK    6  A    between atoms: _15  and  _17
REMARK    7  A    between atoms: _17  and  _18
REMARK    8  A    between atoms: _17  and  _20
REMARK    9  A    between atoms: _20  and  _21
REMARK   10  A    between atoms: _21  and  _22
REMARK   11  A    between atoms: _27  and  _29
REMARK   12  A    between atoms: _29  and  _30
REMARK   13  A    between atoms: _29  and  _32
REMARK   14  A    between atoms: _32  and  _33
REMARK   15  A    between atoms: _35  and  _37
REMARK   16  A    between atoms: _37  and  _38
REMARK   17  A    between atoms: _37  and  _40
REMARK   18  A    between atoms: _40  and  _41
REMARK   19  A    between atoms: _44  and  _46
REMARK   20  A    between atoms: _46  and  _47
REMARK   21  A    between atoms: _46  and  _49
REMARK   22  A    between atoms: _49  and  _50
REMARK   23  A    between atoms: _52  and  _54
REMARK   24  A    between atoms: _54  and  _55
REMARK   25  A    between atoms: _54  and  _57
REMARK   26  A    between atoms: _57  and  _58
REMARK   27  A    between atoms: _61  and  _63
REMARK   28  A    between atoms: _63  and  _64
REMARK   29  A    between atoms: _63  and  _66
REMARK   30  A    between atoms: _66  and  _67
REMARK   31  A    between atoms: _69  and  _71
REMARK   32  A    between atoms: _71  and  _72
REMARK   33  A    between atoms: _74  and  _76
REMARK   34  A    between atoms: _76  and  _77
REMARK   35  A    between atoms: _76  and  _79
REMARK   36  A    between atoms: _79  and  _80
REMARK   37  A    between atoms: _82  and  _84
REMARK   38  A    between atoms: _84  and  _85
REMARK   39  A    between atoms: _84  and  _87
REMARK   40  A    between atoms: _87  and  _88
REMARK   41  A    between atoms: _93  and  _95
REMARK   42  A    between atoms: _95  and  _96
REMARK   43  A    between atoms: _95  and  _98
REMARK   44  A    between atoms: _98  and  _99
REMARK   45  A    between atoms: _102  and  _104
REMARK   46  A    between atoms: _104  and  _105
REMARK   47  A    between atoms: _108  and  _110
REMARK   48  A    between atoms: _110  and  _111
REMARK   49  A    between atoms: _110  and  _113
REMARK   50  A    between atoms: _113  and  _114
REMARK   51  A    between atoms: _117  and  _119
REMARK   52  A    between atoms: _119  and  _120
REMARK   53  A    between atoms: _119  and  _122
REMARK   54  A    between atoms: _122  and  _123
REMARK   55  A    between atoms: _129  and  _131
REMARK   56  A    between atoms: _131  and  _132
REMARK   57  A    between atoms: _135  and  _137
REMARK   58  A    between atoms: _137  and  _138
REMARK   59  A    between atoms: _137  and  _140
REMARK   60  A    between atoms: _140  and  _141
REMARK   61  A    between atoms: _144  and  _146
REMARK   62  A    between atoms: _146  and  _147
REMARK   63  A    between atoms: _146  and  _149
REMARK   64  A    between atoms: _149  and  _150
REMARK   65  A    between atoms: _152  and  _154
REMARK   66  A    between atoms: _154  and  _155
REMARK   67  A    between atoms: _157  and  _159
REMARK   68  A    between atoms: _159  and  _160
REMARK   69  A    between atoms: _162  and  _164
REMARK   70  A    between atoms: _164  and  _165
REMARK   71  A    between atoms: _164  and  _167
REMARK   72  A    between atoms: _167  and  _168
REMARK   73  A    between atoms: _168  and  _169
REMARK   74  A    between atoms: _174  and  _176
REMARK   75  A    between atoms: _176  and  _177
REMARK   76  A    between atoms: _176  and  _179
REMARK   77  A    between atoms: _179  and  _180
REMARK   78  A    between atoms: _183  and  _185
REMARK   79  A    between atoms: _185  and  _186
REMARK   80  A    between atoms: _188  and  _190
REMARK   81  A    between atoms: _190  and  _191
REMARK   82  A    between atoms: _190  and  _193
REMARK   83  A    between atoms: _193  and  _194
REMARK   84  A    between atoms: _197  and  _199
REMARK   85  A    between atoms: _199  and  _200
REMARK   86  A    between atoms: _199  and  _202
REMARK   87  A    between atoms: _202  and  _203
REMARK   88  A    between atoms: _209  and  _211
REMARK   89  A    between atoms: _211  and  _212
REMARK   90  A    between atoms: _211  and  _214
REMARK   91  A    between atoms: _214  and  _215
REMARK   92  A    between atoms: _218  and  _220
REMARK   93  A    between atoms: _220  and  _221
REMARK   94  A    between atoms: _220  and  _223
REMARK   95  A    between atoms: _223  and  _224
REMARK   96  A    between atoms: _230  and  _232
REMARK   97  A    between atoms: _232  and  _233
REMARK   98  A    between atoms: _232  and  _235
REMARK   99  A    between atoms: _235  and  _236
REMARK  100  A    between atoms: _242  and  _244
REMARK  101  A    between atoms: _244  and  _245
REMARK  102  A    between atoms: _244  and  _247
REMARK  103  A    between atoms: _247  and  _248
REMARK  104  A    between atoms: _251  and  _253
REMARK  105  A    between atoms: _253  and  _254
REMARK  106  A    between atoms: _253  and  _256
REMARK  107  A    between atoms: _256  and  _257
REMARK  108  A    between atoms: _260  and  _262
REMARK  109  A    between atoms: _262  and  _263
REMARK  110  A    between atoms: _262  and  _265
REMARK  111  A    between atoms: _265  and  _266
REMARK  112  A    between atoms: _266  and  _267
REMARK  113  A    between atoms: _267  and  _268
REMARK  114  A    between atoms: _277  and  _279
REMARK  115  A    between atoms: _279  and  _280
REMARK  116  A    between atoms: _279  and  _282
REMARK  117  A    between atoms: _282  and  _283
REMARK  118  A    between atoms: _286  and  _288
REMARK  119  A    between atoms: _288  and  _289
REMARK  120  A    between atoms: _288  and  _291
REMARK  121  A    between atoms: _291  and  _292
REMARK  122  A    between atoms: _292  and  _293
REMARK  123  A    between atoms: _298  and  _300
REMARK  124  A    between atoms: _300  and  _301
REMARK  125  A    between atoms: _300  and  _303
REMARK  126  A    between atoms: _303  and  _304
REMARK  127  A    between atoms: _306  and  _308
REMARK  128  A    between atoms: _308  and  _309
REMARK  129  A    between atoms: _311  and  _313
REMARK  130  A    between atoms: _313  and  _314
REMARK  131  A    between atoms: _313  and  _316
REMARK  132  A    between atoms: _316  and  _317
REMARK  133  A    between atoms: _322  and  _324
REMARK  134  A    between atoms: _324  and  _325
REMARK  135  A    between atoms: _327  and  _329
REMARK  136  A    between atoms: _329  and  _330
REMARK  137  A    between atoms: _329  and  _332
REMARK  138  A    between atoms: _332  and  _333
REMARK  139  A    between atoms: _339  and  _341
REMARK  140  A    between atoms: _341  and  _342
REMARK  141  A    between atoms: _341  and  _344
REMARK  142  A    between atoms: _344  and  _345
REMARK  143  A    between atoms: _348  and  _350
REMARK  144  A    between atoms: _350  and  _351
REMARK  145  A    between atoms: _350  and  _353
REMARK  146  A    between atoms: _353  and  _354
REMARK  147  A    between atoms: _354  and  _355
REMARK  148  A    between atoms: _358  and  _360
REMARK  149  A    between atoms: _360  and  _361
REMARK  150  A    between atoms: _360  and  _363
REMARK  151  A    between atoms: _363  and  _364
REMARK  152  A    between atoms: _367  and  _369
REMARK  153  A    between atoms: _369  and  _370
REMARK  154  A    between atoms: _369  and  _372
REMARK  155  A    between atoms: _375  and  _377
REMARK  156  A    between atoms: _377  and  _378
REMARK  157  A    between atoms: _377  and  _380
REMARK  158  A    between atoms: _380  and  _381
REMARK  159  A    between atoms: _384  and  _386
REMARK  160  A    between atoms: _386  and  _387
REMARK  161  A    between atoms: _386  and  _389
REMARK  162  A    between atoms: _389  and  _390
REMARK  163  A    between atoms: _395  and  _397
REMARK  164  A    between atoms: _397  and  _398
REMARK  165  A    between atoms: _400  and  _402
REMARK  166  A    between atoms: _402  and  _403
REMARK  167  A    between atoms: _402  and  _405
REMARK  168  A    between atoms: _405  and  _406
REMARK  169  A    between atoms: _406  and  _407
REMARK  170  A    between atoms: _409  and  _411
REMARK  171  A    between atoms: _411  and  _412
REMARK  172  A    between atoms: _411  and  _414
REMARK  173  A    between atoms: _417  and  _419
REMARK  174  A    between atoms: _419  and  _420
REMARK  175  A    between atoms: _419  and  _422
REMARK  176  A    between atoms: _422  and  _423
REMARK  177  A    between atoms: _425  and  _427
REMARK  178  A    between atoms: _427  and  _428
REMARK  179  A    between atoms: _427  and  _430
REMARK  180  A    between atoms: _430  and  _431
REMARK  181  A    between atoms: _433  and  _435
REMARK  182  A    between atoms: _435  and  _436
REMARK  183  A    between atoms: _435  and  _438
REMARK  184  A    between atoms: _438  and  _439
REMARK  185  A    between atoms: _439  and  _440
REMARK  186  A    between atoms: _445  and  _447
REMARK  187  A    between atoms: _447  and  _448
REMARK  188  A    between atoms: _451  and  _453
REMARK  189  A    between atoms: _453  and  _454
REMARK  190  A    between atoms: _453  and  _456
REMARK  191  A    between atoms: _456  and  _457
REMARK  192  A    between atoms: _457  and  _458
REMARK  193  A    between atoms: _460  and  _462
REMARK  194  A    between atoms: _462  and  _463
REMARK  195  A    between atoms: _462  and  _465
REMARK  196  A    between atoms: _465  and  _466
REMARK  197  A    between atoms: _471  and  _472
REMARK  198  A    between atoms: _474  and  _476
REMARK  199  A    between atoms: _476  and  _477
REMARK  200  A    between atoms: _476  and  _479
REMARK  201  A    between atoms: _479  and  _480
REMARK  202  A    between atoms: _483  and  _485
REMARK  203  A    between atoms: _485  and  _486
REMARK  204  A    between atoms: _485  and  _488
REMARK  205  A    between atoms: _488  and  _489
REMARK  206  A    between atoms: _491  and  _493
REMARK  207  A    between atoms: _493  and  _494
REMARK  208  A    between atoms: _493  and  _496
REMARK  209  A    between atoms: _496  and  _497
REMARK  210  A    between atoms: _500  and  _502
REMARK  211  A    between atoms: _502  and  _503
REMARK  212  A    between atoms: _502  and  _505
REMARK  213  A    between atoms: _505  and  _506
REMARK  214  A    between atoms: _506  and  _507
REMARK  215  A    between atoms: _509  and  _511
REMARK  216  A    between atoms: _511  and  _512
REMARK  217  A    between atoms: _511  and  _514
REMARK  218  A    between atoms: _514  and  _515
REMARK  219  A    between atoms: _520  and  _521
REMARK  220  A    between atoms: _523  and  _525
REMARK  221  A    between atoms: _525  and  _526
REMARK  222  A    between atoms: _525  and  _528
REMARK  223  A    between atoms: _528  and  _529
REMARK  224  A    between atoms: _529  and  _530
REMARK  225  A    between atoms: _530  and  _531
REMARK  226  A    between atoms: _540  and  _542
REMARK  227  A    between atoms: _542  and  _543
REMARK  228  A    between atoms: _542  and  _545
REMARK  229  A    between atoms: _545  and  _546
REMARK  230  A    between atoms: _548  and  _550
REMARK  231  A    between atoms: _550  and  _551
REMARK  232  A    between atoms: _550  and  _553
REMARK  233  A    between atoms: _553  and  _554
REMARK  234  A    between atoms: _559  and  _560
REMARK  235  A    between atoms: _562  and  _564
REMARK  236  A    between atoms: _564  and  _565
REMARK  237  A    between atoms: _568  and  _570
REMARK  238  A    between atoms: _570  and  _571
REMARK  239  A    between atoms: _574  and  _576
REMARK  240  A    between atoms: _576  and  _577
REMARK  241  A    between atoms: _576  and  _579
REMARK  242  A    between atoms: _579  and  _580
REMARK  243  A    between atoms: _580  and  _581
REMARK  244  A    between atoms: _581  and  _582
REMARK  245  A    between atoms: _591  and  _593
REMARK  246  A    between atoms: _593  and  _594
REMARK  247  A    between atoms: _593  and  _596
REMARK  248  A    between atoms: _599  and  _601
REMARK  249  A    between atoms: _601  and  _602
REMARK  250  A    between atoms: _604  and  _606
REMARK  251  A    between atoms: _606  and  _607
REMARK  252  A    between atoms: _606  and  _609
REMARK  253  A    between atoms: _609  and  _610
REMARK  254  A    between atoms: _613  and  _615
REMARK  255  A    between atoms: _615  and  _616
REMARK  256  A    between atoms: _619  and  _621
REMARK  257  A    between atoms: _621  and  _622
REMARK  258  A    between atoms: _621  and  _624
REMARK  259  A    between atoms: _624  and  _625
REMARK  260  A    between atoms: _628  and  _630
REMARK  261  A    between atoms: _630  and  _631
REMARK  262  A    between atoms: _630  and  _633
REMARK  263  A    between atoms: _633  and  _634
REMARK  264  A    between atoms: _639  and  _640
REMARK  265  A    between atoms: _642  and  _644
REMARK  266  A    between atoms: _644  and  _645
REMARK  267  A    between atoms: _644  and  _647
REMARK  268  A    between atoms: _647  and  _648
REMARK  269  A    between atoms: _648  and  _649
REMARK  270  A    between atoms: _651  and  _653
REMARK  271  A    between atoms: _653  and  _654
REMARK  272  A    between atoms: _653  and  _656
REMARK  273  A    between atoms: _656  and  _657
REMARK  274  A    between atoms: _657  and  _658
REMARK  275  A    between atoms: _661  and  _663
REMARK  276  A    between atoms: _663  and  _664
REMARK  277  A    between atoms: _663  and  _666
REMARK  278  A    between atoms: _666  and  _667
REMARK  279  A    between atoms: _673  and  _675
REMARK  280  A    between atoms: _675  and  _676
REMARK  281  A    between atoms: _675  and  _678
REMARK  282  A    between atoms: _678  and  _679
REMARK  283  A    between atoms: _684  and  _686
REMARK  284  A    between atoms: _686  and  _687
REMARK  285  A    between atoms: _686  and  _689
REMARK  286  A    between atoms: _689  and  _690
REMARK  287  A    between atoms: _700  and  _702
REMARK  288  A    between atoms: _702  and  _703
REMARK  289  A    between atoms: _702  and  _705
REMARK  290  A    between atoms: _708  and  _710
REMARK  291  A    between atoms: _710  and  _711
REMARK  292  A    between atoms: _710  and  _713
REMARK  293  A    between atoms: _713  and  _714
REMARK  294  A    between atoms: _717  and  _719
REMARK  295  A    between atoms: _719  and  _720
REMARK  296  A    between atoms: _719  and  _722
REMARK  297  A    between atoms: _722  and  _723
REMARK  298  A    between atoms: _723  and  _724
REMARK  299  A    between atoms: _726  and  _728
REMARK  300  A    between atoms: _728  and  _729
REMARK  301  A    between atoms: _728  and  _731
REMARK  302  A    between atoms: _731  and  _732
REMARK  303  A    between atoms: _735  and  _737
REMARK  304  A    between atoms: _737  and  _738
REMARK  305  A    between atoms: _737  and  _740
REMARK  306  A    between atoms: _740  and  _741
REMARK  307  A    between atoms: _744  and  _746
REMARK  308  A    between atoms: _746  and  _747
REMARK  309  A    between atoms: _746  and  _749
REMARK  310  A    between atoms: _749  and  _750
REMARK  311  A    between atoms: _753  and  _755
REMARK  312  A    between atoms: _755  and  _756
REMARK  313  A    between atoms: _755  and  _758
REMARK  314  A    between atoms: _758  and  _759
REMARK  315  A    between atoms: _762  and  _764
REMARK  316  A    between atoms: _764  and  _765
REMARK  317  A    between atoms: _767  and  _769
REMARK  318  A    between atoms: _769  and  _770
REMARK  319  A    between atoms: _769  and  _772
REMARK  320  A    between atoms: _772  and  _773
REMARK  321  A    between atoms: _775  and  _777
REMARK  322  A    between atoms: _777  and  _778
REMARK  323  A    between atoms: _777  and  _780
REMARK  324  A    between atoms: _780  and  _781
REMARK  325  A    between atoms: _791  and  _793
REMARK  326  A    between atoms: _793  and  _794
REMARK  327  A    between atoms: _793  and  _796
REMARK  328  A    between atoms: _796  and  _797
REMARK  329  A    between atoms: _799  and  _801
REMARK  330  A    between atoms: _801  and  _802
REMARK  331  A    between atoms: _801  and  _804
REMARK  332  A    between atoms: _804  and  _805
REMARK  333  A    between atoms: _808  and  _810
REMARK  334  A    between atoms: _810  and  _811
REMARK  335  A    between atoms: _814  and  _816
REMARK  336  A    between atoms: _816  and  _817
REMARK  337  A    between atoms: _816  and  _819
REMARK  338  A    between atoms: _819  and  _820
REMARK  339  A    between atoms: _822  and  _824
REMARK  340  A    between atoms: _824  and  _825
REMARK  341  A    between atoms: _824  and  _827
REMARK  342  A    between atoms: _827  and  _828
REMARK  343  A    between atoms: _828  and  _829
REMARK  344  A    between atoms: _832  and  _834
REMARK  345  A    between atoms: _834  and  _835
REMARK  346  A    between atoms: _834  and  _837
REMARK  347  A    between atoms: _837  and  _838
REMARK  348  A    between atoms: _840  and  _842
REMARK  349  A    between atoms: _842  and  _843
REMARK  350  A    between atoms: _842  and  _845
REMARK  351  A    between atoms: _845  and  _846
REMARK  352  A    between atoms: _846  and  _847
REMARK  353  A    between atoms: _852  and  _854
REMARK  354  A    between atoms: _854  and  _855
REMARK  355  A    between atoms: _854  and  _857
REMARK  356  A    between atoms: _857  and  _858
REMARK  357  A    between atoms: _858  and  _859
REMARK  358  A    between atoms: _864  and  _866
REMARK  359  A    between atoms: _866  and  _867
REMARK  360  A    between atoms: _866  and  _869
REMARK  361  A    between atoms: _869  and  _870
REMARK  362  A    between atoms: _873  and  _875
REMARK  363  A    between atoms: _875  and  _876
REMARK  364  A    between atoms: _875  and  _878
REMARK  365  A    between atoms: _878  and  _879
REMARK  366  A    between atoms: _882  and  _884
REMARK  367  A    between atoms: _884  and  _885
REMARK  368  A    between atoms: _884  and  _887
REMARK  369  A    between atoms: _887  and  _888
REMARK  370  A    between atoms: _895  and  _896
REMARK  371  A    between atoms: _901  and  _903
REMARK  372  A    between atoms: _903  and  _904
REMARK  373  A    between atoms: _903  and  _906
REMARK  374  A    between atoms: _906  and  _907
REMARK  375  A    between atoms: _912  and  _913
REMARK  376  A    between atoms: _915  and  _917
REMARK  377  A    between atoms: _917  and  _918
REMARK  378  A    between atoms: _917  and  _920
REMARK  379  A    between atoms: _920  and  _921
REMARK  380  A    between atoms: _926  and  _928
REMARK  381  A    between atoms: _928  and  _929
REMARK  382  A    between atoms: _928  and  _931
REMARK  383  A    between atoms: _931  and  _932
REMARK  384  A    between atoms: _938  and  _940
REMARK  385  A    between atoms: _940  and  _941
REMARK  386  A    between atoms: _940  and  _943
REMARK  387  A    between atoms: _943  and  _944
REMARK  388  A    between atoms: _947  and  _949
REMARK  389  A    between atoms: _949  and  _950
REMARK  390  A    between atoms: _949  and  _952
REMARK  391  A    between atoms: _952  and  _953
REMARK  392  A    between atoms: _958  and  _960
REMARK  393  A    between atoms: _960  and  _961
REMARK  394  A    between atoms: _960  and  _963
REMARK  395  A    between atoms: _963  and  _964
REMARK  396  A    between atoms: _970  and  _972
REMARK  397  A    between atoms: _972  and  _973
REMARK  398  A    between atoms: _972  and  _975
REMARK  399  A    between atoms: _975  and  _976
REMARK  400  A    between atoms: _976  and  _977
REMARK  401  A    between atoms: _979  and  _981
REMARK  402  A    between atoms: _981  and  _982
REMARK  403  A    between atoms: _981  and  _984
REMARK  404  A    between atoms: _984  and  _985
REMARK  405  A    between atoms: _988  and  _990
REMARK  406  A    between atoms: _990  and  _991
REMARK  407  A    between atoms: _990  and  _993
REMARK  408  A    between atoms: _993  and  _994
REMARK  409  A    between atoms: _999  and  _1001
REMARK  410  A    between atoms: _1001  and  _1002
REMARK  411  A    between atoms: _1001  and  _1004
REMARK  412  A    between atoms: _1004  and  _1005
REMARK  413  A    between atoms: _1010  and  _1011
REMARK                            x       y       z     vdW  Elec       q    Type
REMARK                         _______ _______ _______ _____ _____    ______ ____
ROOT
ATOM      1  O   HOH     1      -9.613 -14.672  15.143  0.00  0.00    +0.000 OA
ENDROOT
TORSDOF 0
REMARK  Name = ../refined-set-2016/3drg/3drg_pocket.pdb
REMARK  413 active torsions:
REMARK  status: ('A' for Active; 'I' for Inactive)
REMARK    1  A    between atoms: _1  and  _3
REMARK    2  A    between atoms: _3  and  _4
REMARK    3  A    between atoms: _3  and  _6
REMARK    4  A    between atoms: _6  and  _7
REMARK    5  A    between atoms: _12  and  _13
REMARK    6  A    between atoms: _15  and  _17
REMARK    7  A    between atoms: _17  and  _18
REMARK    8  A    between atoms: _17  and  _20
REMARK    9  A    between atoms: _20  and  _21
REMARK   10  A    between atoms: _21  and  _22
REMARK   11  A    between atoms: _27  and  _29
REMARK   12  A    between atoms: _29  and  _30
REMARK   13  A    between atoms: _29  and  _32
REMARK   14  A    between atoms: _32  and  _33
REMARK   15  A    between atoms: _35  and  _37
REMARK   16  A    between atoms: _37  and  _38
REMARK   17  A    between atoms: _37  and  _40
REMARK   18  A    between atoms: _40  and  _41
REMARK   19  A    between atoms: _44  and  _46
REMARK   20  A    between atoms: _46  and  _47
REMARK   21  A    between atoms: _46  and  _49
REMARK   22  A    between atoms: _49  and  _50
REMARK   23  A    between atoms: _52  and  _54
REMARK   24  A    between atoms: _54  and  _55
REMARK   25  A    between atoms: _54  and  _57
REMARK   26  A    between atoms: _57  and  _58
REMARK   27  A    between atoms: _61  and  _63
REMARK   28  A    between atoms: _63  and  _64
REMARK   29  A    between atoms: _63  and  _66
REMARK   30  A    between atoms: _66  and  _67
REMARK   31  A    between atoms: _69  and  _71
REMARK   32  A    between atoms: _71  and  _72
REMARK   33  A    between atoms: _74  and  _76
REMARK   34  A    between atoms: _76  and  _77
REMARK   35  A    between atoms: _76  and  _79
REMARK   36  A    between atoms: _79  and  _80
REMARK   37  A    between atoms: _82  and  _84
REMARK   38  A    between atoms: _84  and  _85
REMARK   39  A    between atoms: _84  and  _87
REMARK   40  A    between atoms: _87  and  _88
REMARK   41  A    between atoms: _93  and  _95
REMARK   42  A    between atoms: _95  and  _96
REMARK   43  A    between atoms: _95  and  _98
REMARK   44  A    between atoms: _98  and  _99
REMARK   45  A    between atoms: _102  and  _104
REMARK   46  A    between atoms: _104  and  _105
REMARK   47  A    between atoms: _108  and  _110
REMARK   48  A    between atoms: _110  and  _111
REMARK   49  A    between atoms: _110  and  _113
REMARK   50  A    between atoms: _113  and  _114
REMARK   51  A    between atoms: _117  and  _119
REMARK   52  A    between atoms: _119  and  _120
REMARK   53  A    between atoms: _119  and  _122
REMARK   54  A    between atoms: _122  and  _123
REMARK   55  A    between atoms: _129  and  _131
REMARK   56  A    between atoms: _131  and  _132
REMARK   57  A    between atoms: _135  and  _137
REMARK   58  A    between atoms: _137  and  _138
REMARK   59  A    between atoms: _137  and  _140
REMARK   60  A    between atoms: _140  and  _141
REMARK   61  A    between atoms: _144  and  _146
REMARK   62  A    between atoms: _146  and  _147
REMARK   63  A    between atoms: _146  and  _149
REMARK   64  A    between atoms: _149  and  _150
REMARK   65  A    between atoms: _152  and  _154
REMARK   66  A    between atoms: _154  and  _155
REMARK   67  A    between atoms: _157  and  _159
REMARK   68  A    between atoms: _159  and  _160
REMARK   69  A    between atoms: _162  and  _164
REMARK   70  A    between atoms: _164  and  _165
REMARK   71  A    between atoms: _164  and  _167
REMARK   72  A    between atoms: _167  and  _168
REMARK   73  A    between atoms: _168  and  _169
REMARK   74  A    between atoms: _174  and  _176
REMARK   75  A    between atoms: _176  and  _177
REMARK   76  A    between atoms: _176  and  _179
REMARK   77  A    between atoms: _179  and  _180
REMARK   78  A    between atoms: _183  and  _185
REMARK   79  A    between atoms: _185  and  _186
REMARK   80  A    between atoms: _188  and  _190
REMARK   81  A    between atoms: _190  and  _191
REMARK   82  A    between atoms: _190  and  _193
REMARK   83  A    between atoms: _193  and  _194
REMARK   84  A    between atoms: _197  and  _199
REMARK   85  A    between atoms: _199  and  _200
REMARK   86  A    between atoms: _199  and  _202
REMARK   87  A    between atoms: _202  and  _203
REMARK   88  A    between atoms: _209  and  _211
REMARK   89  A    between atoms: _211  and  _212
REMARK   90  A    between atoms: _211  and  _214
REMARK   91  A    between atoms: _214  and  _215
REMARK   92  A    between atoms: _218  and  _220
REMARK   93  A    between atoms: _220  and  _221
REMARK   94  A    between atoms: _220  and  _223
REMARK   95  A    between atoms: _223  and  _224
REMARK   96  A    between atoms: _230  and  _232
REMARK   97  A    between atoms: _232  and  _233
REMARK   98  A    between atoms: _232  and  _235
REMARK   99  A    between atoms: _235  and  _236
REMARK  100  A    between atoms: _242  and  _244
REMARK  101  A    between atoms: _244  and  _245
REMARK  102  A    between atoms: _244  and  _247
REMARK  103  A    between atoms: _247  and  _248
REMARK  104  A    between atoms: _251  and  _253
REMARK  105  A    between atoms: _253  and  _254
REMARK  106  A    between atoms: _253  and  _256
REMARK  107  A    between atoms: _256  and  _257
REMARK  108  A    between atoms: _260  and  _262
REMARK  109  A    between atoms: _262  and  _263
REMARK  110  A    between atoms: _262  and  _265
REMARK  111  A    between atoms: _265  and  _266
REMARK  112  A    between atoms: _266  and  _267
REMARK  113  A    between atoms: _267  and  _268
REMARK  114  A    between atoms: _277  and  _279
REMARK  115  A    between atoms: _279  and  _280
REMARK  116  A    between atoms: _279  and  _282
REMARK  117  A    between atoms: _282  and  _283
REMARK  118  A    between atoms: _286  and  _288
REMARK  119  A    between atoms: _288  and  _289
REMARK  120  A    between atoms: _288  and  _291
REMARK  121  A    between atoms: _291  and  _292
REMARK  122  A    between atoms: _292  and  _293
REMARK  123  A    between atoms: _298  and  _300
REMARK  124  A    between atoms: _300  and  _301
REMARK  125  A    between atoms: _300  and  _303
REMARK  126  A    between atoms: _303  and  _304
REMARK  127  A    between atoms: _306  and  _308
REMARK  128  A    between atoms: _308  and  _309
REMARK  129  A    between atoms: _311  and  _313
REMARK  130  A    between atoms: _313  and  _314
REMARK  131  A    between atoms: _313  and  _316
REMARK  132  A    between atoms: _316  and  _317
REMARK  133  A    between atoms: _322  and  _324
REMARK  134  A    between atoms: _324  and  _325
REMARK  135  A    between atoms: _327  and  _329
REMARK  136  A    between atoms: _329  and  _330
REMARK  137  A    between atoms: _329  and  _332
REMARK  138  A    between atoms: _332  and  _333
REMARK  139  A    between atoms: _339  and  _341
REMARK  140  A    between atoms: _341  and  _342
REMARK  141  A    between atoms: _341  and  _344
REMARK  142  A    between atoms: _344  and  _345
REMARK  143  A    between atoms: _348  and  _350
REMARK  144  A    between atoms: _350  and  _351
REMARK  145  A    between atoms: _350  and  _353
REMARK  146  A    between atoms: _353  and  _354
REMARK  147  A    between atoms: _354  and  _355
REMARK  148  A    between atoms: _358  and  _360
REMARK  149  A    between atoms: _360  and  _361
REMARK  150  A    between atoms: _360  and  _363
REMARK  151  A    between atoms: _363  and  _364
REMARK  152  A    between atoms: _367  and  _369
REMARK  153  A    between atoms: _369  and  _370
REMARK  154  A    between atoms: _369  and  _372
REMARK  155  A    between atoms: _375  and  _377
REMARK  156  A    between atoms: _377  and  _378
REMARK  157  A    between atoms: _377  and  _380
REMARK  158  A    between atoms: _380  and  _381
REMARK  159  A    between atoms: _384  and  _386
REMARK  160  A    between atoms: _386  and  _387
REMARK  161  A    between atoms: _386  and  _389
REMARK  162  A    between atoms: _389  and  _390
REMARK  163  A    between atoms: _395  and  _397
REMARK  164  A    between atoms: _397  and  _398
REMARK  165  A    between atoms: _400  and  _402
REMARK  166  A    between atoms: _402  and  _403
REMARK  167  A    between atoms: _402  and  _405
REMARK  168  A    between atoms: _405  and  _406
REMARK  169  A    between atoms: _406  and  _407
REMARK  170  A    between atoms: _409  and  _411
REMARK  171  A    between atoms: _411  and  _412
REMARK  172  A    between atoms: _411  and  _414
REMARK  173  A    between atoms: _417  and  _419
REMARK  174  A    between atoms: _419  and  _420
REMARK  175  A    between atoms: _419  and  _422
REMARK  176  A    between atoms: _422  and  _423
REMARK  177  A    between atoms: _425  and  _427
REMARK  178  A    between atoms: _427  and  _428
REMARK  179  A    between atoms: _427  and  _430
REMARK  180  A    between atoms: _430  and  _431
REMARK  181  A    between atoms: _433  and  _435
REMARK  182  A    between atoms: _435  and  _436
REMARK  183  A    between atoms: _435  and  _438
REMARK  184  A    between atoms: _438  and  _439
REMARK  185  A    between atoms: _439  and  _440
REMARK  186  A    between atoms: _445  and  _447
REMARK  187  A    between atoms: _447  and  _448
REMARK  188  A    between atoms: _451  and  _453
REMARK  189  A    between atoms: _453  and  _454
REMARK  190  A    between atoms: _453  and  _456
REMARK  191  A    between atoms: _456  and  _457
REMARK  192  A    between atoms: _457  and  _458
REMARK  193  A    between atoms: _460  and  _462
REMARK  194  A    between atoms: _462  and  _463
REMARK  195  A    between atoms: _462  and  _465
REMARK  196  A    between atoms: _465  and  _466
REMARK  197  A    between atoms: _471  and  _472
REMARK  198  A    between atoms: _474  and  _476
REMARK  199  A    between atoms: _476  and  _477
REMARK  200  A    between atoms: _476  and  _479
REMARK  201  A    between atoms: _479  and  _480
REMARK  202  A    between atoms: _483  and  _485
REMARK  203  A    between atoms: _485  and  _486
REMARK  204  A    between atoms: _485  and  _488
REMARK  205  A    between atoms: _488  and  _489
REMARK  206  A    between atoms: _491  and  _493
REMARK  207  A    between atoms: _493  and  _494
REMARK  208  A    between atoms: _493  and  _496
REMARK  209  A    between atoms: _496  and  _497
REMARK  210  A    between atoms: _500  and  _502
REMARK  211  A    between atoms: _502  and  _503
REMARK  212  A    between atoms: _502  and  _505
REMARK  213  A    between atoms: _505  and  _506
REMARK  214  A    between atoms: _506  and  _507
REMARK  215  A    between atoms: _509  and  _511
REMARK  216  A    between atoms: _511  and  _512
REMARK  217  A    between atoms: _511  and  _514
REMARK  218  A    between atoms: _514  and  _515
REMARK  219  A    between atoms: _520  and  _521
REMARK  220  A    between atoms: _523  and  _525
REMARK  221  A    between atoms: _525  and  _526
REMARK  222  A    between atoms: _525  and  _528
REMARK  223  A    between atoms: _528  and  _529
REMARK  224  A    between atoms: _529  and  _530
REMARK  225  A    between atoms: _530  and  _531
REMARK  226  A    between atoms: _540  and  _542
REMARK  227  A    between atoms: _542  and  _543
REMARK  228  A    between atoms: _542  and  _545
REMARK  229  A    between atoms: _545  and  _546
REMARK  230  A    between atoms: _548  and  _550
REMARK  231  A    between atoms: _550  and  _551
REMARK  232  A    between atoms: _550  and  _553
REMARK  233  A    between atoms: _553  and  _554
REMARK  234  A    between atoms: _559  and  _560
REMARK  235  A    between atoms: _562  and  _564
REMARK  236  A    between atoms: _564  and  _565
REMARK  237  A    between atoms: _568  and  _570
REMARK  238  A    between atoms: _570  and  _571
REMARK  239  A    between atoms: _574  and  _576
REMARK  240  A    between atoms: _576  and  _577
REMARK  241  A    between atoms: _576  and  _579
REMARK  242  A    between atoms: _579  and  _580
REMARK  243  A    between atoms: _580  and  _581
REMARK  244  A    between atoms: _581  and  _582
REMARK  245  A    between atoms: _591  and  _593
REMARK  246  A    between atoms: _593  and  _594
REMARK  247  A    between atoms: _593  and  _596
REMARK  248  A    between atoms: _599  and  _601
REMARK  249  A    between atoms: _601  and  _602
REMARK  250  A    between atoms: _604  and  _606
REMARK  251  A    between atoms: _606  and  _607
REMARK  252  A    between atoms: _606  and  _609
REMARK  253  A    between atoms: _609  and  _610
REMARK  254  A    between atoms: _613  and  _615
REMARK  255  A    between atoms: _615  and  _616
REMARK  256  A    between atoms: _619  and  _621
REMARK  257  A    between atoms: _621  and  _622
REMARK  258  A    between atoms: _621  and  _624
REMARK  259  A    between atoms: _624  and  _625
REMARK  260  A    between atoms: _628  and  _630
REMARK  261  A    between atoms: _630  and  _631
REMARK  262  A    between atoms: _630  and  _633
REMARK  263  A    between atoms: _633  and  _634
REMARK  264  A    between atoms: _639  and  _640
REMARK  265  A    between atoms: _642  and  _644
REMARK  266  A    between atoms: _644  and  _645
REMARK  267  A    between atoms: _644  and  _647
REMARK  268  A    between atoms: _647  and  _648
REMARK  269  A    between atoms: _648  and  _649
REMARK  270  A    between atoms: _651  and  _653
REMARK  271  A    between atoms: _653  and  _654
REMARK  272  A    between atoms: _653  and  _656
REMARK  273  A    between atoms: _656  and  _657
REMARK  274  A    between atoms: _657  and  _658
REMARK  275  A    between atoms: _661  and  _663
REMARK  276  A    between atoms: _663  and  _664
REMARK  277  A    between atoms: _663  and  _666
REMARK  278  A    between atoms: _666  and  _667
REMARK  279  A    between atoms: _673  and  _675
REMARK  280  A    between atoms: _675  and  _676
REMARK  281  A    between atoms: _675  and  _678
REMARK  282  A    between atoms: _678  and  _679
REMARK  283  A    between atoms: _684  and  _686
REMARK  284  A    between atoms: _686  and  _687
REMARK  285  A    between atoms: _686  and  _689
REMARK  286  A    between atoms: _689  and  _690
REMARK  287  A    between atoms: _700  and  _702
REMARK  288  A    between atoms: _702  and  _703
REMARK  289  A    between atoms: _702  and  _705
REMARK  290  A    between atoms: _708  and  _710
REMARK  291  A    between atoms: _710  and  _711
REMARK  292  A    between atoms: _710  and  _713
REMARK  293  A    between atoms: _713  and  _714
REMARK  294  A    between atoms: _717  and  _719
REMARK  295  A    between atoms: _719  and  _720
REMARK  296  A    between atoms: _719  and  _722
REMARK  297  A    between atoms: _722  and  _723
REMARK  298  A    between atoms: _723  and  _724
REMARK  299  A    between atoms: _726  and  _728
REMARK  300  A    between atoms: _728  and  _729
REMARK  301  A    between atoms: _728  and  _731
REMARK  302  A    between atoms: _731  and  _732
REMARK  303  A    between atoms: _735  and  _737
REMARK  304  A    between atoms: _737  and  _738
REMARK  305  A    between atoms: _737  and  _740
REMARK  306  A    between atoms: _740  and  _741
REMARK  307  A    between atoms: _744  and  _746
REMARK  308  A    between atoms: _746  and  _747
REMARK  309  A    between atoms: _746  and  _749
REMARK  310  A    between atoms: _749  and  _750
REMARK  311  A    between atoms: _753  and  _755
REMARK  312  A    between atoms: _755  and  _756
REMARK  313  A    between atoms: _755  and  _758
REMARK  314  A    between atoms: _758  and  _759
REMARK  315  A    between atoms: _762  and  _764
REMARK  316  A    between atoms: _764  and  _765
REMARK  317  A    between atoms: _767  and  _769
REMARK  318  A    between atoms: _769  and  _770
REMARK  319  A    between atoms: _769  and  _772
REMARK  320  A    between atoms: _772  and  _773
REMARK  321  A    between atoms: _775  and  _777
REMARK  322  A    between atoms: _777  and  _778
REMARK  323  A    between atoms: _777  and  _780
REMARK  324  A    between atoms: _780  and  _781
REMARK  325  A    between atoms: _791  and  _793
REMARK  326  A    between atoms: _793  and  _794
REMARK  327  A    between atoms: _793  and  _796
REMARK  328  A    between atoms: _796  and  _797
REMARK  329  A    between atoms: _799  and  _801
REMARK  330  A    between atoms: _801  and  _802
REMARK  331  A    between atoms: _801  and  _804
REMARK  332  A    between atoms: _804  and  _805
REMARK  333  A    between atoms: _808  and  _810
REMARK  334  A    between atoms: _810  and  _811
REMARK  335  A    between atoms: _814  and  _816
REMARK  336  A    between atoms: _816  and  _817
REMARK  337  A    between atoms: _816  and  _819
REMARK  338  A    between atoms: _819  and  _820
REMARK  339  A    between atoms: _822  and  _824
REMARK  340  A    between atoms: _824  and  _825
REMARK  341  A    between atoms: _824  and  _827
REMARK  342  A    between atoms: _827  and  _828
REMARK  343  A    between atoms: _828  and  _829
REMARK  344  A    between atoms: _832  and  _834
REMARK  345  A    between atoms: _834  and  _835
REMARK  346  A    between atoms: _834  and  _837
REMARK  347  A    between atoms: _837  and  _838
REMARK  348  A    between atoms: _840  and  _842
REMARK  349  A    between atoms: _842  and  _843
REMARK  350  A    between atoms: _842  and  _845
REMARK  351  A    between atoms: _845  and  _846
REMARK  352  A    between atoms: _846  and  _847
REMARK  353  A    between atoms: _852  and  _854
REMARK  354  A    between atoms: _854  and  _855
REMARK  355  A    between atoms: _854  and  _857
REMARK  356  A    between atoms: _857  and  _858
REMARK  357  A    between atoms: _858  and  _859
REMARK  358  A    between atoms: _864  and  _866
REMARK  359  A    between atoms: _866  and  _867
REMARK  360  A    between atoms: _866  and  _869
REMARK  361  A    between atoms: _869  and  _870
REMARK  362  A    between atoms: _873  and  _875
REMARK  363  A    between atoms: _875  and  _876
REMARK  364  A    between atoms: _875  and  _878
REMARK  365  A    between atoms: _878  and  _879
REMARK  366  A    between atoms: _882  and  _884
REMARK  367  A    between atoms: _884  and  _885
REMARK  368  A    between atoms: _884  and  _887
REMARK  369  A    between atoms: _887  and  _888
REMARK  370  A    between atoms: _895  and  _896
REMARK  371  A    between atoms: _901  and  _903
REMARK  372  A    between atoms: _903  and  _904
REMARK  373  A    between atoms: _903  and  _906
REMARK  374  A    between atoms: _906  and  _907
REMARK  375  A    between atoms: _912  and  _913
REMARK  376  A    between atoms: _915  and  _917
REMARK  377  A    between atoms: _917  and  _918
REMARK  378  A    between atoms: _917  and  _920
REMARK  379  A    between atoms: _920  and  _921
REMARK  380  A    between atoms: _926  and  _928
REMARK  381  A    between atoms: _928  and  _929
REMARK  382  A    between atoms: _928  and  _931
REMARK  383  A    between atoms: _931  and  _932
REMARK  384  A    between atoms: _938  and  _940
REMARK  385  A    between atoms: _940  and  _941
REMARK  386  A    between atoms: _940  and  _943
REMARK  387  A    between atoms: _943  and  _944
REMARK  388  A    between atoms: _947  and  _949
REMARK  389  A    between atoms: _949  and  _950
REMARK  390  A    between atoms: _949  and  _952
REMARK  391  A    between atoms: _952  and  _953
REMARK  392  A    between atoms: _958  and  _960
REMARK  393  A    between atoms: _960  and  _961
REMARK  394  A    between atoms: _960  and  _963
REMARK  395  A    between atoms: _963  and  _964
REMARK  396  A    between atoms: _970  and  _972
REMARK  397  A    between atoms: _972  and  _973
REMARK  398  A    between atoms: _972  and  _975
REMARK  399  A    between atoms: _975  and  _976
REMARK  400  A    between atoms: _976  and  _977
REMARK  401  A    between atoms: _979  and  _981
REMARK  402  A    between atoms: _981  and  _982
REMARK  403  A    between atoms: _981  and  _984
REMARK  404  A    between atoms: _984  and  _985
REMARK  405  A    between atoms: _988  and  _990
REMARK  406  A    between atoms: _990  and  _991
REMARK  407  A    between atoms: _990  and  _993
REMARK  408  A    between atoms: _993  and  _994
REMARK  409  A    between atoms: _999  and  _1001
REMARK  410  A    between atoms: _1001  and  _1002
REMARK  411  A    between atoms: _1001  and  _1004
REMARK  412  A    between atoms: _1004  and  _1005
REMARK  413  A    between atoms: _1010  and  _1011
REMARK                            x       y       z     vdW  Elec       q    Type
REMARK                         _______ _______ _______ _____ _____    ______ ____
ROOT
ATOM      1  O   HOH     1      -1.389 -21.596  22.613  0.00  0.00    +0.000 OA
ENDROOT
TORSDOF 0
REMARK  Name = ../refined-set-2016/3drg/3drg_pocket.pdb
REMARK  413 active torsions:
REMARK  status: ('A' for Active; 'I' for Inactive)
REMARK    1  A    between atoms: _1  and  _3
REMARK    2  A    between atoms: _3  and  _4
REMARK    3  A    between atoms: _3  and  _6
REMARK    4  A    between atoms: _6  and  _7
REMARK    5  A    between atoms: _12  and  _13
REMARK    6  A    between atoms: _15  and  _17
REMARK    7  A    between atoms: _17  and  _18
REMARK    8  A    between atoms: _17  and  _20
REMARK    9  A    between atoms: _20  and  _21
REMARK   10  A    between atoms: _21  and  _22
REMARK   11  A    between atoms: _27  and  _29
REMARK   12  A    between atoms: _29  and  _30
REMARK   13  A    between atoms: _29  and  _32
REMARK   14  A    between atoms: _32  and  _33
REMARK   15  A    between atoms: _35  and  _37
REMARK   16  A    between atoms: _37  and  _38
REMARK   17  A    between atoms: _37  and  _40
REMARK   18  A    between atoms: _40  and  _41
REMARK   19  A    between atoms: _44  and  _46
REMARK   20  A    between atoms: _46  and  _47
REMARK   21  A    between atoms: _46  and  _49
REMARK   22  A    between atoms: _49  and  _50
REMARK   23  A    between atoms: _52  and  _54
REMARK   24  A    between atoms: _54  and  _55
REMARK   25  A    between atoms: _54  and  _57
REMARK   26  A    between atoms: _57  and  _58
REMARK   27  A    between atoms: _61  and  _63
REMARK   28  A    between atoms: _63  and  _64
REMARK   29  A    between atoms: _63  and  _66
REMARK   30  A    between atoms: _66  and  _67
REMARK   31  A    between atoms: _69  and  _71
REMARK   32  A    between atoms: _71  and  _72
REMARK   33  A    between atoms: _74  and  _76
REMARK   34  A    between atoms: _76  and  _77
REMARK   35  A    between atoms: _76  and  _79
REMARK   36  A    between atoms: _79  and  _80
REMARK   37  A    between atoms: _82  and  _84
REMARK   38  A    between atoms: _84  and  _85
REMARK   39  A    between atoms: _84  and  _87
REMARK   40  A    between atoms: _87  and  _88
REMARK   41  A    between atoms: _93  and  _95
REMARK   42  A    between atoms: _95  and  _96
REMARK   43  A    between atoms: _95  and  _98
REMARK   44  A    between atoms: _98  and  _99
REMARK   45  A    between atoms: _102  and  _104
REMARK   46  A    between atoms: _104  and  _105
REMARK   47  A    between atoms: _108  and  _110
REMARK   48  A    between atoms: _110  and  _111
REMARK   49  A    between atoms: _110  and  _113
REMARK   50  A    between atoms: _113  and  _114
REMARK   51  A    between atoms: _117  and  _119
REMARK   52  A    between atoms: _119  and  _120
REMARK   53  A    between atoms: _119  and  _122
REMARK   54  A    between atoms: _122  and  _123
REMARK   55  A    between atoms: _129  and  _131
REMARK   56  A    between atoms: _131  and  _132
REMARK   57  A    between atoms: _135  and  _137
REMARK   58  A    between atoms: _137  and  _138
REMARK   59  A    between atoms: _137  and  _140
REMARK   60  A    between atoms: _140  and  _141
REMARK   61  A    between atoms: _144  and  _146
REMARK   62  A    between atoms: _146  and  _147
REMARK   63  A    between atoms: _146  and  _149
REMARK   64  A    between atoms: _149  and  _150
REMARK   65  A    between atoms: _152  and  _154
REMARK   66  A    between atoms: _154  and  _155
REMARK   67  A    between atoms: _157  and  _159
REMARK   68  A    between atoms: _159  and  _160
REMARK   69  A    between atoms: _162  and  _164
REMARK   70  A    between atoms: _164  and  _165
REMARK   71  A    between atoms: _164  and  _167
REMARK   72  A    between atoms: _167  and  _168
REMARK   73  A    between atoms: _168  and  _169
REMARK   74  A    between atoms: _174  and  _176
REMARK   75  A    between atoms: _176  and  _177
REMARK   76  A    between atoms: _176  and  _179
REMARK   77  A    between atoms: _179  and  _180
REMARK   78  A    between atoms: _183  and  _185
REMARK   79  A    between atoms: _185  and  _186
REMARK   80  A    between atoms: _188  and  _190
REMARK   81  A    between atoms: _190  and  _191
REMARK   82  A    between atoms: _190  and  _193
REMARK   83  A    between atoms: _193  and  _194
REMARK   84  A    between atoms: _197  and  _199
REMARK   85  A    between atoms: _199  and  _200
REMARK   86  A    between atoms: _199  and  _202
REMARK   87  A    between atoms: _202  and  _203
REMARK   88  A    between atoms: _209  and  _211
REMARK   89  A    between atoms: _211  and  _212
REMARK   90  A    between atoms: _211  and  _214
REMARK   91  A    between atoms: _214  and  _215
REMARK   92  A    between atoms: _218  and  _220
REMARK   93  A    between atoms: _220  and  _221
REMARK   94  A    between atoms: _220  and  _223
REMARK   95  A    between atoms: _223  and  _224
REMARK   96  A    between atoms: _230  and  _232
REMARK   97  A    between atoms: _232  and  _233
REMARK   98  A    between atoms: _232  and  _235
REMARK   99  A    between atoms: _235  and  _236
REMARK  100  A    between atoms: _242  and  _244
REMARK  101  A    between atoms: _244  and  _245
REMARK  102  A    between atoms: _244  and  _247
REMARK  103  A    between atoms: _247  and  _248
REMARK  104  A    between atoms: _251  and  _253
REMARK  105  A    between atoms: _253  and  _254
REMARK  106  A    between atoms: _253  and  _256
REMARK  107  A    between atoms: _256  and  _257
REMARK  108  A    between atoms: _260  and  _262
REMARK  109  A    between atoms: _262  and  _263
REMARK  110  A    between atoms: _262  and  _265
REMARK  111  A    between atoms: _265  and  _266
REMARK  112  A    between atoms: _266  and  _267
REMARK  113  A    between atoms: _267  and  _268
REMARK  114  A    between atoms: _277  and  _279
REMARK  115  A    between atoms: _279  and  _280
REMARK  116  A    between atoms: _279  and  _282
REMARK  117  A    between atoms: _282  and  _283
REMARK  118  A    between atoms: _286  and  _288
REMARK  119  A    between atoms: _288  and  _289
REMARK  120  A    between atoms: _288  and  _291
REMARK  121  A    between atoms: _291  and  _292
REMARK  122  A    between atoms: _292  and  _293
REMARK  123  A    between atoms: _298  and  _300
REMARK  124  A    between atoms: _300  and  _301
REMARK  125  A    between atoms: _300  and  _303
REMARK  126  A    between atoms: _303  and  _304
REMARK  127  A    between atoms: _306  and  _308
REMARK  128  A    between atoms: _308  and  _309
REMARK  129  A    between atoms: _311  and  _313
REMARK  130  A    between atoms: _313  and  _314
REMARK  131  A    between atoms: _313  and  _316
REMARK  132  A    between atoms: _316  and  _317
REMARK  133  A    between atoms: _322  and  _324
REMARK  134  A    between atoms: _324  and  _325
REMARK  135  A    between atoms: _327  and  _329
REMARK  136  A    between atoms: _329  and  _330
REMARK  137  A    between atoms: _329  and  _332
REMARK  138  A    between atoms: _332  and  _333
REMARK  139  A    between atoms: _339  and  _341
REMARK  140  A    between atoms: _341  and  _342
REMARK  141  A    between atoms: _341  and  _344
REMARK  142  A    between atoms: _344  and  _345
REMARK  143  A    between atoms: _348  and  _350
REMARK  144  A    between atoms: _350  and  _351
REMARK  145  A    between atoms: _350  and  _353
REMARK  146  A    between atoms: _353  and  _354
REMARK  147  A    between atoms: _354  and  _355
REMARK  148  A    between atoms: _358  and  _360
REMARK  149  A    between atoms: _360  and  _361
REMARK  150  A    between atoms: _360  and  _363
REMARK  151  A    between atoms: _363  and  _364
REMARK  152  A    between atoms: _367  and  _369
REMARK  153  A    between atoms: _369  and  _370
REMARK  154  A    between atoms: _369  and  _372
REMARK  155  A    between atoms: _375  and  _377
REMARK  156  A    between atoms: _377  and  _378
REMARK  157  A    between atoms: _377  and  _380
REMARK  158  A    between atoms: _380  and  _381
REMARK  159  A    between atoms: _384  and  _386
REMARK  160  A    between atoms: _386  and  _387
REMARK  161  A    between atoms: _386  and  _389
REMARK  162  A    between atoms: _389  and  _390
REMARK  163  A    between atoms: _395  and  _397
REMARK  164  A    between atoms: _397  and  _398
REMARK  165  A    between atoms: _400  and  _402
REMARK  166  A    between atoms: _402  and  _403
REMARK  167  A    between atoms: _402  and  _405
REMARK  168  A    between atoms: _405  and  _406
REMARK  169  A    between atoms: _406  and  _407
REMARK  170  A    between atoms: _409  and  _411
REMARK  171  A    between atoms: _411  and  _412
REMARK  172  A    between atoms: _411  and  _414
REMARK  173  A    between atoms: _417  and  _419
REMARK  174  A    between atoms: _419  and  _420
REMARK  175  A    between atoms: _419  and  _422
REMARK  176  A    between atoms: _422  and  _423
REMARK  177  A    between atoms: _425  and  _427
REMARK  178  A    between atoms: _427  and  _428
REMARK  179  A    between atoms: _427  and  _430
REMARK  180  A    between atoms: _430  and  _431
REMARK  181  A    between atoms: _433  and  _435
REMARK  182  A    between atoms: _435  and  _436
REMARK  183  A    between atoms: _435  and  _438
REMARK  184  A    between atoms: _438  and  _439
REMARK  185  A    between atoms: _439  and  _440
REMARK  186  A    between atoms: _445  and  _447
REMARK  187  A    between atoms: _447  and  _448
REMARK  188  A    between atoms: _451  and  _453
REMARK  189  A    between atoms: _453  and  _454
REMARK  190  A    between atoms: _453  and  _456
REMARK  191  A    between atoms: _456  and  _457
REMARK  192  A    between atoms: _457  and  _458
REMARK  193  A    between atoms: _460  and  _462
REMARK  194  A    between atoms: _462  and  _463
REMARK  195  A    between atoms: _462  and  _465
REMARK  196  A    between atoms: _465  and  _466
REMARK  197  A    between atoms: _471  and  _472
REMARK  198  A    between atoms: _474  and  _476
REMARK  199  A    between atoms: _476  and  _477
REMARK  200  A    between atoms: _476  and  _479
REMARK  201  A    between atoms: _479  and  _480
REMARK  202  A    between atoms: _483  and  _485
REMARK  203  A    between atoms: _485  and  _486
REMARK  204  A    between atoms: _485  and  _488
REMARK  205  A    between atoms: _488  and  _489
REMARK  206  A    between atoms: _491  and  _493
REMARK  207  A    between atoms: _493  and  _494
REMARK  208  A    between atoms: _493  and  _496
REMARK  209  A    between atoms: _496  and  _497
REMARK  210  A    between atoms: _500  and  _502
REMARK  211  A    between atoms: _502  and  _503
REMARK  212  A    between atoms: _502  and  _505
REMARK  213  A    between atoms: _505  and  _506
REMARK  214  A    between atoms: _506  and  _507
REMARK  215  A    between atoms: _509  and  _511
REMARK  216  A    between atoms: _511  and  _512
REMARK  217  A    between atoms: _511  and  _514
REMARK  218  A    between atoms: _514  and  _515
REMARK  219  A    between atoms: _520  and  _521
REMARK  220  A    between atoms: _523  and  _525
REMARK  221  A    between atoms: _525  and  _526
REMARK  222  A    between atoms: _525  and  _528
REMARK  223  A    between atoms: _528  and  _529
REMARK  224  A    between atoms: _529  and  _530
REMARK  225  A    between atoms: _530  and  _531
REMARK  226  A    between atoms: _540  and  _542
REMARK  227  A    between atoms: _542  and  _543
REMARK  228  A    between atoms: _542  and  _545
REMARK  229  A    between atoms: _545  and  _546
REMARK  230  A    between atoms: _548  and  _550
REMARK  231  A    between atoms: _550  and  _551
REMARK  232  A    between atoms: _550  and  _553
REMARK  233  A    between atoms: _553  and  _554
REMARK  234  A    between atoms: _559  and  _560
REMARK  235  A    between atoms: _562  and  _564
REMARK  236  A    between atoms: _564  and  _565
REMARK  237  A    between atoms: _568  and  _570
REMARK  238  A    between atoms: _570  and  _571
REMARK  239  A    between atoms: _574  and  _576
REMARK  240  A    between atoms: _576  and  _577
REMARK  241  A    between atoms: _576  and  _579
REMARK  242  A    between atoms: _579  and  _580
REMARK  243  A    between atoms: _580  and  _581
REMARK  244  A    between atoms: _581  and  _582
REMARK  245  A    between atoms: _591  and  _593
REMARK  246  A    between atoms: _593  and  _594
REMARK  247  A    between atoms: _593  and  _596
REMARK  248  A    between atoms: _599  and  _601
REMARK  249  A    between atoms: _601  and  _602
REMARK  250  A    between atoms: _604  and  _606
REMARK  251  A    between atoms: _606  and  _607
REMARK  252  A    between atoms: _606  and  _609
REMARK  253  A    between atoms: _609  and  _610
REMARK  254  A    between atoms: _613  and  _615
REMARK  255  A    between atoms: _615  and  _616
REMARK  256  A    between atoms: _619  and  _621
REMARK  257  A    between atoms: _621  and  _622
REMARK  258  A    between atoms: _621  and  _624
REMARK  259  A    between atoms: _624  and  _625
REMARK  260  A    between atoms: _628  and  _630
REMARK  261  A    between atoms: _630  and  _631
REMARK  262  A    between atoms: _630  and  _633
REMARK  263  A    between atoms: _633  and  _634
REMARK  264  A    between atoms: _639  and  _640
REMARK  265  A    between atoms: _642  and  _644
REMARK  266  A    between atoms: _644  and  _645
REMARK  267  A    between atoms: _644  and  _647
REMARK  268  A    between atoms: _647  and  _648
REMARK  269  A    between atoms: _648  and  _649
REMARK  270  A    between atoms: _651  and  _653
REMARK  271  A    between atoms: _653  and  _654
REMARK  272  A    between atoms: _653  and  _656
REMARK  273  A    between atoms: _656  and  _657
REMARK  274  A    between atoms: _657  and  _658
REMARK  275  A    between atoms: _661  and  _663
REMARK  276  A    between atoms: _663  and  _664
REMARK  277  A    between atoms: _663  and  _666
REMARK  278  A    between atoms: _666  and  _667
REMARK  279  A    between atoms: _673  and  _675
REMARK  280  A    between atoms: _675  and  _676
REMARK  281  A    between atoms: _675  and  _678
REMARK  282  A    between atoms: _678  and  _679
REMARK  283  A    between atoms: _684  and  _686
REMARK  284  A    between atoms: _686  and  _687
REMARK  285  A    between atoms: _686  and  _689
REMARK  286  A    between atoms: _689  and  _690
REMARK  287  A    between atoms: _700  and  _702
REMARK  288  A    between atoms: _702  and  _703
REMARK  289  A    between atoms: _702  and  _705
REMARK  290  A    between atoms: _708  and  _710
REMARK  291  A    between atoms: _710  and  _711
REMARK  292  A    between atoms: _710  and  _713
REMARK  293  A    between atoms: _713  and  _714
REMARK  294  A    between atoms: _717  and  _719
REMARK  295  A    between atoms: _719  and  _720
REMARK  296  A    between atoms: _719  and  _722
REMARK  297  A    between atoms: _722  and  _723
REMARK  298  A    between atoms: _723  and  _724
REMARK  299  A    between atoms: _726  and  _728
REMARK  300  A    between atoms: _728  and  _729
REMARK  301  A    between atoms: _728  and  _731
REMARK  302  A    between atoms: _731  and  _732
REMARK  303  A    between atoms: _735  and  _737
REMARK  304  A    between atoms: _737  and  _738
REMARK  305  A    between atoms: _737  and  _740
REMARK  306  A    between atoms: _740  and  _741
REMARK  307  A    between atoms: _744  and  _746
REMARK  308  A    between atoms: _746  and  _747
REMARK  309  A    between atoms: _746  and  _749
REMARK  310  A    between atoms: _749  and  _750
REMARK  311  A    between atoms: _753  and  _755
REMARK  312  A    between atoms: _755  and  _756
REMARK  313  A    between atoms: _755  and  _758
REMARK  314  A    between atoms: _758  and  _759
REMARK  315  A    between atoms: _762  and  _764
REMARK  316  A    between atoms: _764  and  _765
REMARK  317  A    between atoms: _767  and  _769
REMARK  318  A    between atoms: _769  and  _770
REMARK  319  A    between atoms: _769  and  _772
REMARK  320  A    between atoms: _772  and  _773
REMARK  321  A    between atoms: _775  and  _777
REMARK  322  A    between atoms: _777  and  _778
REMARK  323  A    between atoms: _777  and  _780
REMARK  324  A    between atoms: _780  and  _781
REMARK  325  A    between atoms: _791  and  _793
REMARK  326  A    between atoms: _793  and  _794
REMARK  327  A    between atoms: _793  and  _796
REMARK  328  A    between atoms: _796  and  _797
REMARK  329  A    between atoms: _799  and  _801
REMARK  330  A    between atoms: _801  and  _802
REMARK  331  A    between atoms: _801  and  _804
REMARK  332  A    between atoms: _804  and  _805
REMARK  333  A    between atoms: _808  and  _810
REMARK  334  A    between atoms: _810  and  _811
REMARK  335  A    between atoms: _814  and  _816
REMARK  336  A    between atoms: _816  and  _817
REMARK  337  A    between atoms: _816  and  _819
REMARK  338  A    between atoms: _819  and  _820
REMARK  339  A    between atoms: _822  and  _824
REMARK  340  A    between atoms: _824  and  _825
REMARK  341  A    between atoms: _824  and  _827
REMARK  342  A    between atoms: _827  and  _828
REMARK  343  A    between atoms: _828  and  _829
REMARK  344  A    between atoms: _832  and  _834
REMARK  345  A    between atoms: _834  and  _835
REMARK  346  A    between atoms: _834  and  _837
REMARK  347  A    between atoms: _837  and  _838
REMARK  348  A    between atoms: _840  and  _842
REMARK  349  A    between atoms: _842  and  _843
REMARK  350  A    between atoms: _842  and  _845
REMARK  351  A    between atoms: _845  and  _846
REMARK  352  A    between atoms: _846  and  _847
REMARK  353  A    between atoms: _852  and  _854
REMARK  354  A    between atoms: _854  and  _855
REMARK  355  A    between atoms: _854  and  _857
REMARK  356  A    between atoms: _857  and  _858
REMARK  357  A    between atoms: _858  and  _859
REMARK  358  A    between atoms: _864  and  _866
REMARK  359  A    between atoms: _866  and  _867
REMARK  360  A    between atoms: _866  and  _869
REMARK  361  A    between atoms: _869  and  _870
REMARK  362  A    between atoms: _873  and  _875
REMARK  363  A    between atoms: _875  and  _876
REMARK  364  A    between atoms: _875  and  _878
REMARK  365  A    between atoms: _878  and  _879
REMARK  366  A    between atoms: _882  and  _884
REMARK  367  A    between atoms: _884  and  _885
REMARK  368  A    between atoms: _884  and  _887
REMARK  369  A    between atoms: _887  and  _888
REMARK  370  A    between atoms: _895  and  _896
REMARK  371  A    between atoms: _901  and  _903
REMARK  372  A    between atoms: _903  and  _904
REMARK  373  A    between atoms: _903  and  _906
REMARK  374  A    between atoms: _906  and  _907
REMARK  375  A    between atoms: _912  and  _913
REMARK  376  A    between atoms: _915  and  _917
REMARK  377  A    between atoms: _917  and  _918
REMARK  378  A    between atoms: _917  and  _920
REMARK  379  A    between atoms: _920  and  _921
REMARK  380  A    between atoms: _926  and  _928
REMARK  381  A    between atoms: _928  and  _929
REMARK  382  A    between atoms: _928  and  _931
REMARK  383  A    between atoms: _931  and  _932
REMARK  384  A    between atoms: _938  and  _940
REMARK  385  A    between atoms: _940  and  _941
REMARK  386  A    between atoms: _940  and  _943
REMARK  387  A    between atoms: _943  and  _944
REMARK  388  A    between atoms: _947  and  _949
REMARK  389  A    between atoms: _949  and  _950
REMARK  390  A    between atoms: _949  and  _952
REMARK  391  A    between atoms: _952  and  _953
REMARK  392  A    between atoms: _958  and  _960
REMARK  393  A    between atoms: _960  and  _961
REMARK  394  A    between atoms: _960  and  _963
REMARK  395  A    between atoms: _963  and  _964
REMARK  396  A    between atoms: _970  and  _972
REMARK  397  A    between atoms: _972  and  _973
REMARK  398  A    between atoms: _972  and  _975
REMARK  399  A    between atoms: _975  and  _976
REMARK  400  A    between atoms: _976  and  _977
REMARK  401  A    between atoms: _979  and  _981
REMARK  402  A    between atoms: _981  and  _982
REMARK  403  A    between atoms: _981  and  _984
REMARK  404  A    between atoms: _984  and  _985
REMARK  405  A    between atoms: _988  and  _990
REMARK  406  A    between atoms: _990  and  _991
REMARK  407  A    between atoms: _990  and  _993
REMARK  408  A    between atoms: _993  and  _994
REMARK  409  A    between atoms: _999  and  _1001
REMARK  410  A    between atoms: _1001  and  _1002
REMARK  411  A    between atoms: _1001  and  _1004
REMARK  412  A    between atoms: _1004  and  _1005
REMARK  413  A    between atoms: _1010  and  _1011
REMARK                            x       y       z     vdW  Elec       q    Type
REMARK                         _______ _______ _______ _____ _____    ______ ____
ROOT
ATOM      1  O   HOH     1     -14.759 -23.431  18.482  0.00  0.00    +0.000 OA
ENDROOT
TORSDOF 0
REMARK  Name = ../refined-set-2016/3drg/3drg_pocket.pdb
REMARK  413 active torsions:
REMARK  status: ('A' for Active; 'I' for Inactive)
REMARK    1  A    between atoms: _1  and  _3
REMARK    2  A    between atoms: _3  and  _4
REMARK    3  A    between atoms: _3  and  _6
REMARK    4  A    between atoms: _6  and  _7
REMARK    5  A    between atoms: _12  and  _13
REMARK    6  A    between atoms: _15  and  _17
REMARK    7  A    between atoms: _17  and  _18
REMARK    8  A    between atoms: _17  and  _20
REMARK    9  A    between atoms: _20  and  _21
REMARK   10  A    between atoms: _21  and  _22
REMARK   11  A    between atoms: _27  and  _29
REMARK   12  A    between atoms: _29  and  _30
REMARK   13  A    between atoms: _29  and  _32
REMARK   14  A    between atoms: _32  and  _33
REMARK   15  A    between atoms: _35  and  _37
REMARK   16  A    between atoms: _37  and  _38
REMARK   17  A    between atoms: _37  and  _40
REMARK   18  A    between atoms: _40  and  _41
REMARK   19  A    between atoms: _44  and  _46
REMARK   20  A    between atoms: _46  and  _47
REMARK   21  A    between atoms: _46  and  _49
REMARK   22  A    between atoms: _49  and  _50
REMARK   23  A    between atoms: _52  and  _54
REMARK   24  A    between atoms: _54  and  _55
REMARK   25  A    between atoms: _54  and  _57
REMARK   26  A    between atoms: _57  and  _58
REMARK   27  A    between atoms: _61  and  _63
REMARK   28  A    between atoms: _63  and  _64
REMARK   29  A    between atoms: _63  and  _66
REMARK   30  A    between atoms: _66  and  _67
REMARK   31  A    between atoms: _69  and  _71
REMARK   32  A    between atoms: _71  and  _72
REMARK   33  A    between atoms: _74  and  _76
REMARK   34  A    between atoms: _76  and  _77
REMARK   35  A    between atoms: _76  and  _79
REMARK   36  A    between atoms: _79  and  _80
REMARK   37  A    between atoms: _82  and  _84
REMARK   38  A    between atoms: _84  and  _85
REMARK   39  A    between atoms: _84  and  _87
REMARK   40  A    between atoms: _87  and  _88
REMARK   41  A    between atoms: _93  and  _95
REMARK   42  A    between atoms: _95  and  _96
REMARK   43  A    between atoms: _95  and  _98
REMARK   44  A    between atoms: _98  and  _99
REMARK   45  A    between atoms: _102  and  _104
REMARK   46  A    between atoms: _104  and  _105
REMARK   47  A    between atoms: _108  and  _110
REMARK   48  A    between atoms: _110  and  _111
REMARK   49  A    between atoms: _110  and  _113
REMARK   50  A    between atoms: _113  and  _114
REMARK   51  A    between atoms: _117  and  _119
REMARK   52  A    between atoms: _119  and  _120
REMARK   53  A    between atoms: _119  and  _122
REMARK   54  A    between atoms: _122  and  _123
REMARK   55  A    between atoms: _129  and  _131
REMARK   56  A    between atoms: _131  and  _132
REMARK   57  A    between atoms: _135  and  _137
REMARK   58  A    between atoms: _137  and  _138
REMARK   59  A    between atoms: _137  and  _140
REMARK   60  A    between atoms: _140  and  _141
REMARK   61  A    between atoms: _144  and  _146
REMARK   62  A    between atoms: _146  and  _147
REMARK   63  A    between atoms: _146  and  _149
REMARK   64  A    between atoms: _149  and  _150
REMARK   65  A    between atoms: _152  and  _154
REMARK   66  A    between atoms: _154  and  _155
REMARK   67  A    between atoms: _157  and  _159
REMARK   68  A    between atoms: _159  and  _160
REMARK   69  A    between atoms: _162  and  _164
REMARK   70  A    between atoms: _164  and  _165
REMARK   71  A    between atoms: _164  and  _167
REMARK   72  A    between atoms: _167  and  _168
REMARK   73  A    between atoms: _168  and  _169
REMARK   74  A    between atoms: _174  and  _176
REMARK   75  A    between atoms: _176  and  _177
REMARK   76  A    between atoms: _176  and  _179
REMARK   77  A    between atoms: _179  and  _180
REMARK   78  A    between atoms: _183  and  _185
REMARK   79  A    between atoms: _185  and  _186
REMARK   80  A    between atoms: _188  and  _190
REMARK   81  A    between atoms: _190  and  _191
REMARK   82  A    between atoms: _190  and  _193
REMARK   83  A    between atoms: _193  and  _194
REMARK   84  A    between atoms: _197  and  _199
REMARK   85  A    between atoms: _199  and  _200
REMARK   86  A    between atoms: _199  and  _202
REMARK   87  A    between atoms: _202  and  _203
REMARK   88  A    between atoms: _209  and  _211
REMARK   89  A    between atoms: _211  and  _212
REMARK   90  A    between atoms: _211  and  _214
REMARK   91  A    between atoms: _214  and  _215
REMARK   92  A    between atoms: _218  and  _220
REMARK   93  A    between atoms: _220  and  _221
REMARK   94  A    between atoms: _220  and  _223
REMARK   95  A    between atoms: _223  and  _224
REMARK   96  A    between atoms: _230  and  _232
REMARK   97  A    between atoms: _232  and  _233
REMARK   98  A    between atoms: _232  and  _235
REMARK   99  A    between atoms: _235  and  _236
REMARK  100  A    between atoms: _242  and  _244
REMARK  101  A    between atoms: _244  and  _245
REMARK  102  A    between atoms: _244  and  _247
REMARK  103  A    between atoms: _247  and  _248
REMARK  104  A    between atoms: _251  and  _253
REMARK  105  A    between atoms: _253  and  _254
REMARK  106  A    between atoms: _253  and  _256
REMARK  107  A    between atoms: _256  and  _257
REMARK  108  A    between atoms: _260  and  _262
REMARK  109  A    between atoms: _262  and  _263
REMARK  110  A    between atoms: _262  and  _265
REMARK  111  A    between atoms: _265  and  _266
REMARK  112  A    between atoms: _266  and  _267
REMARK  113  A    between atoms: _267  and  _268
REMARK  114  A    between atoms: _277  and  _279
REMARK  115  A    between atoms: _279  and  _280
REMARK  116  A    between atoms: _279  and  _282
REMARK  117  A    between atoms: _282  and  _283
REMARK  118  A    between atoms: _286  and  _288
REMARK  119  A    between atoms: _288  and  _289
REMARK  120  A    between atoms: _288  and  _291
REMARK  121  A    between atoms: _291  and  _292
REMARK  122  A    between atoms: _292  and  _293
REMARK  123  A    between atoms: _298  and  _300
REMARK  124  A    between atoms: _300  and  _301
REMARK  125  A    between atoms: _300  and  _303
REMARK  126  A    between atoms: _303  and  _304
REMARK  127  A    between atoms: _306  and  _308
REMARK  128  A    between atoms: _308  and  _309
REMARK  129  A    between atoms: _311  and  _313
REMARK  130  A    between atoms: _313  and  _314
REMARK  131  A    between atoms: _313  and  _316
REMARK  132  A    between atoms: _316  and  _317
REMARK  133  A    between atoms: _322  and  _324
REMARK  134  A    between atoms: _324  and  _325
REMARK  135  A    between atoms: _327  and  _329
REMARK  136  A    between atoms: _329  and  _330
REMARK  137  A    between atoms: _329  and  _332
REMARK  138  A    between atoms: _332  and  _333
REMARK  139  A    between atoms: _339  and  _341
REMARK  140  A    between atoms: _341  and  _342
REMARK  141  A    between atoms: _341  and  _344
REMARK  142  A    between atoms: _344  and  _345
REMARK  143  A    between atoms: _348  and  _350
REMARK  144  A    between atoms: _350  and  _351
REMARK  145  A    between atoms: _350  and  _353
REMARK  146  A    between atoms: _353  and  _354
REMARK  147  A    between atoms: _354  and  _355
REMARK  148  A    between atoms: _358  and  _360
REMARK  149  A    between atoms: _360  and  _361
REMARK  150  A    between atoms: _360  and  _363
REMARK  151  A    between atoms: _363  and  _364
REMARK  152  A    between atoms: _367  and  _369
REMARK  153  A    between atoms: _369  and  _370
REMARK  154  A    between atoms: _369  and  _372
REMARK  155  A    between atoms: _375  and  _377
REMARK  156  A    between atoms: _377  and  _378
REMARK  157  A    between atoms: _377  and  _380
REMARK  158  A    between atoms: _380  and  _381
REMARK  159  A    between atoms: _384  and  _386
REMARK  160  A    between atoms: _386  and  _387
REMARK  161  A    between atoms: _386  and  _389
REMARK  162  A    between atoms: _389  and  _390
REMARK  163  A    between atoms: _395  and  _397
REMARK  164  A    between atoms: _397  and  _398
REMARK  165  A    between atoms: _400  and  _402
REMARK  166  A    between atoms: _402  and  _403
REMARK  167  A    between atoms: _402  and  _405
REMARK  168  A    between atoms: _405  and  _406
REMARK  169  A    between atoms: _406  and  _407
REMARK  170  A    between atoms: _409  and  _411
REMARK  171  A    between atoms: _411  and  _412
REMARK  172  A    between atoms: _411  and  _414
REMARK  173  A    between atoms: _417  and  _419
REMARK  174  A    between atoms: _419  and  _420
REMARK  175  A    between atoms: _419  and  _422
REMARK  176  A    between atoms: _422  and  _423
REMARK  177  A    between atoms: _425  and  _427
REMARK  178  A    between atoms: _427  and  _428
REMARK  179  A    between atoms: _427  and  _430
REMARK  180  A    between atoms: _430  and  _431
REMARK  181  A    between atoms: _433  and  _435
REMARK  182  A    between atoms: _435  and  _436
REMARK  183  A    between atoms: _435  and  _438
REMARK  184  A    between atoms: _438  and  _439
REMARK  185  A    between atoms: _439  and  _440
REMARK  186  A    between atoms: _445  and  _447
REMARK  187  A    between atoms: _447  and  _448
REMARK  188  A    between atoms: _451  and  _453
REMARK  189  A    between atoms: _453  and  _454
REMARK  190  A    between atoms: _453  and  _456
REMARK  191  A    between atoms: _456  and  _457
REMARK  192  A    between atoms: _457  and  _458
REMARK  193  A    between atoms: _460  and  _462
REMARK  194  A    between atoms: _462  and  _463
REMARK  195  A    between atoms: _462  and  _465
REMARK  196  A    between atoms: _465  and  _466
REMARK  197  A    between atoms: _471  and  _472
REMARK  198  A    between atoms: _474  and  _476
REMARK  199  A    between atoms: _476  and  _477
REMARK  200  A    between atoms: _476  and  _479
REMARK  201  A    between atoms: _479  and  _480
REMARK  202  A    between atoms: _483  and  _485
REMARK  203  A    between atoms: _485  and  _486
REMARK  204  A    between atoms: _485  and  _488
REMARK  205  A    between atoms: _488  and  _489
REMARK  206  A    between atoms: _491  and  _493
REMARK  207  A    between atoms: _493  and  _494
REMARK  208  A    between atoms: _493  and  _496
REMARK  209  A    between atoms: _496  and  _497
REMARK  210  A    between atoms: _500  and  _502
REMARK  211  A    between atoms: _502  and  _503
REMARK  212  A    between atoms: _502  and  _505
REMARK  213  A    between atoms: _505  and  _506
REMARK  214  A    between atoms: _506  and  _507
REMARK  215  A    between atoms: _509  and  _511
REMARK  216  A    between atoms: _511  and  _512
REMARK  217  A    between atoms: _511  and  _514
REMARK  218  A    between atoms: _514  and  _515
REMARK  219  A    between atoms: _520  and  _521
REMARK  220  A    between atoms: _523  and  _525
REMARK  221  A    between atoms: _525  and  _526
REMARK  222  A    between atoms: _525  and  _528
REMARK  223  A    between atoms: _528  and  _529
REMARK  224  A    between atoms: _529  and  _530
REMARK  225  A    between atoms: _530  and  _531
REMARK  226  A    between atoms: _540  and  _542
REMARK  227  A    between atoms: _542  and  _543
REMARK  228  A    between atoms: _542  and  _545
REMARK  229  A    between atoms: _545  and  _546
REMARK  230  A    between atoms: _548  and  _550
REMARK  231  A    between atoms: _550  and  _551
REMARK  232  A    between atoms: _550  and  _553
REMARK  233  A    between atoms: _553  and  _554
REMARK  234  A    between atoms: _559  and  _560
REMARK  235  A    between atoms: _562  and  _564
REMARK  236  A    between atoms: _564  and  _565
REMARK  237  A    between atoms: _568  and  _570
REMARK  238  A    between atoms: _570  and  _571
REMARK  239  A    between atoms: _574  and  _576
REMARK  240  A    between atoms: _576  and  _577
REMARK  241  A    between atoms: _576  and  _579
REMARK  242  A    between atoms: _579  and  _580
REMARK  243  A    between atoms: _580  and  _581
REMARK  244  A    between atoms: _581  and  _582
REMARK  245  A    between atoms: _591  and  _593
REMARK  246  A    between atoms: _593  and  _594
REMARK  247  A    between atoms: _593  and  _596
REMARK  248  A    between atoms: _599  and  _601
REMARK  249  A    between atoms: _601  and  _602
REMARK  250  A    between atoms: _604  and  _606
REMARK  251  A    between atoms: _606  and  _607
REMARK  252  A    between atoms: _606  and  _609
REMARK  253  A    between atoms: _609  and  _610
REMARK  254  A    between atoms: _613  and  _615
REMARK  255  A    between atoms: _615  and  _616
REMARK  256  A    between atoms: _619  and  _621
REMARK  257  A    between atoms: _621  and  _622
REMARK  258  A    between atoms: _621  and  _624
REMARK  259  A    between atoms: _624  and  _625
REMARK  260  A    between atoms: _628  and  _630
REMARK  261  A    between atoms: _630  and  _631
REMARK  262  A    between atoms: _630  and  _633
REMARK  263  A    between atoms: _633  and  _634
REMARK  264  A    between atoms: _639  and  _640
REMARK  265  A    between atoms: _642  and  _644
REMARK  266  A    between atoms: _644  and  _645
REMARK  267  A    between atoms: _644  and  _647
REMARK  268  A    between atoms: _647  and  _648
REMARK  269  A    between atoms: _648  and  _649
REMARK  270  A    between atoms: _651  and  _653
REMARK  271  A    between atoms: _653  and  _654
REMARK  272  A    between atoms: _653  and  _656
REMARK  273  A    between atoms: _656  and  _657
REMARK  274  A    between atoms: _657  and  _658
REMARK  275  A    between atoms: _661  and  _663
REMARK  276  A    between atoms: _663  and  _664
REMARK  277  A    between atoms: _663  and  _666
REMARK  278  A    between atoms: _666  and  _667
REMARK  279  A    between atoms: _673  and  _675
REMARK  280  A    between atoms: _675  and  _676
REMARK  281  A    between atoms: _675  and  _678
REMARK  282  A    between atoms: _678  and  _679
REMARK  283  A    between atoms: _684  and  _686
REMARK  284  A    between atoms: _686  and  _687
REMARK  285  A    between atoms: _686  and  _689
REMARK  286  A    between atoms: _689  and  _690
REMARK  287  A    between atoms: _700  and  _702
REMARK  288  A    between atoms: _702  and  _703
REMARK  289  A    between atoms: _702  and  _705
REMARK  290  A    between atoms: _708  and  _710
REMARK  291  A    between atoms: _710  and  _711
REMARK  292  A    between atoms: _710  and  _713
REMARK  293  A    between atoms: _713  and  _714
REMARK  294  A    between atoms: _717  and  _719
REMARK  295  A    between atoms: _719  and  _720
REMARK  296  A    between atoms: _719  and  _722
REMARK  297  A    between atoms: _722  and  _723
REMARK  298  A    between atoms: _723  and  _724
REMARK  299  A    between atoms: _726  and  _728
REMARK  300  A    between atoms: _728  and  _729
REMARK  301  A    between atoms: _728  and  _731
REMARK  302  A    between atoms: _731  and  _732
REMARK  303  A    between atoms: _735  and  _737
REMARK  304  A    between atoms: _737  and  _738
REMARK  305  A    between atoms: _737  and  _740
REMARK  306  A    between atoms: _740  and  _741
REMARK  307  A    between atoms: _744  and  _746
REMARK  308  A    between atoms: _746  and  _747
REMARK  309  A    between atoms: _746  and  _749
REMARK  310  A    between atoms: _749  and  _750
REMARK  311  A    between atoms: _753  and  _755
REMARK  312  A    between atoms: _755  and  _756
REMARK  313  A    between atoms: _755  and  _758
REMARK  314  A    between atoms: _758  and  _759
REMARK  315  A    between atoms: _762  and  _764
REMARK  316  A    between atoms: _764  and  _765
REMARK  317  A    between atoms: _767  and  _769
REMARK  318  A    between atoms: _769  and  _770
REMARK  319  A    between atoms: _769  and  _772
REMARK  320  A    between atoms: _772  and  _773
REMARK  321  A    between atoms: _775  and  _777
REMARK  322  A    between atoms: _777  and  _778
REMARK  323  A    between atoms: _777  and  _780
REMARK  324  A    between atoms: _780  and  _781
REMARK  325  A    between atoms: _791  and  _793
REMARK  326  A    between atoms: _793  and  _794
REMARK  327  A    between atoms: _793  and  _796
REMARK  328  A    between atoms: _796  and  _797
REMARK  329  A    between atoms: _799  and  _801
REMARK  330  A    between atoms: _801  and  _802
REMARK  331  A    between atoms: _801  and  _804
REMARK  332  A    between atoms: _804  and  _805
REMARK  333  A    between atoms: _808  and  _810
REMARK  334  A    between atoms: _810  and  _811
REMARK  335  A    between atoms: _814  and  _816
REMARK  336  A    between atoms: _816  and  _817
REMARK  337  A    between atoms: _816  and  _819
REMARK  338  A    between atoms: _819  and  _820
REMARK  339  A    between atoms: _822  and  _824
REMARK  340  A    between atoms: _824  and  _825
REMARK  341  A    between atoms: _824  and  _827
REMARK  342  A    between atoms: _827  and  _828
REMARK  343  A    between atoms: _828  and  _829
REMARK  344  A    between atoms: _832  and  _834
REMARK  345  A    between atoms: _834  and  _835
REMARK  346  A    between atoms: _834  and  _837
REMARK  347  A    between atoms: _837  and  _838
REMARK  348  A    between atoms: _840  and  _842
REMARK  349  A    between atoms: _842  and  _843
REMARK  350  A    between atoms: _842  and  _845
REMARK  351  A    between atoms: _845  and  _846
REMARK  352  A    between atoms: _846  and  _847
REMARK  353  A    between atoms: _852  and  _854
REMARK  354  A    between atoms: _854  and  _855
REMARK  355  A    between atoms: _854  and  _857
REMARK  356  A    between atoms: _857  and  _858
REMARK  357  A    between atoms: _858  and  _859
REMARK  358  A    between atoms: _864  and  _866
REMARK  359  A    between atoms: _866  and  _867
REMARK  360  A    between atoms: _866  and  _869
REMARK  361  A    between atoms: _869  and  _870
REMARK  362  A    between atoms: _873  and  _875
REMARK  363  A    between atoms: _875  and  _876
REMARK  364  A    between atoms: _875  and  _878
REMARK  365  A    between atoms: _878  and  _879
REMARK  366  A    between atoms: _882  and  _884
REMARK  367  A    between atoms: _884  and  _885
REMARK  368  A    between atoms: _884  and  _887
REMARK  369  A    between atoms: _887  and  _888
REMARK  370  A    between atoms: _895  and  _896
REMARK  371  A    between atoms: _901  and  _903
REMARK  372  A    between atoms: _903  and  _904
REMARK  373  A    between atoms: _903  and  _906
REMARK  374  A    between atoms: _906  and  _907
REMARK  375  A    between atoms: _912  and  _913
REMARK  376  A    between atoms: _915  and  _917
REMARK  377  A    between atoms: _917  and  _918
REMARK  378  A    between atoms: _917  and  _920
REMARK  379  A    between atoms: _920  and  _921
REMARK  380  A    between atoms: _926  and  _928
REMARK  381  A    between atoms: _928  and  _929
REMARK  382  A    between atoms: _928  and  _931
REMARK  383  A    between atoms: _931  and  _932
REMARK  384  A    between atoms: _938  and  _940
REMARK  385  A    between atoms: _940  and  _941
REMARK  386  A    between atoms: _940  and  _943
REMARK  387  A    between atoms: _943  and  _944
REMARK  388  A    between atoms: _947  and  _949
REMARK  389  A    between atoms: _949  and  _950
REMARK  390  A    between atoms: _949  and  _952
REMARK  391  A    between atoms: _952  and  _953
REMARK  392  A    between atoms: _958  and  _960
REMARK  393  A    between atoms: _960  and  _961
REMARK  394  A    between atoms: _960  and  _963
REMARK  395  A    between atoms: _963  and  _964
REMARK  396  A    between atoms: _970  and  _972
REMARK  397  A    between atoms: _972  and  _973
REMARK  398  A    between atoms: _972  and  _975
REMARK  399  A    between atoms: _975  and  _976
REMARK  400  A    between atoms: _976  and  _977
REMARK  401  A    between atoms: _979  and  _981
REMARK  402  A    between atoms: _981  and  _982
REMARK  403  A    between atoms: _981  and  _984
REMARK  404  A    between atoms: _984  and  _985
REMARK  405  A    between atoms: _988  and  _990
REMARK  406  A    between atoms: _990  and  _991
REMARK  407  A    between atoms: _990  and  _993
REMARK  408  A    between atoms: _993  and  _994
REMARK  409  A    between atoms: _999  and  _1001
REMARK  410  A    between atoms: _1001  and  _1002
REMARK  411  A    between atoms: _1001  and  _1004
REMARK  412  A    between atoms: _1004  and  _1005
REMARK  413  A    between atoms: _1010  and  _1011
REMARK                            x       y       z     vdW  Elec       q    Type
REMARK                         _______ _______ _______ _____ _____    ______ ____
ROOT
ATOM      1  O   HOH     1     -21.443 -17.225  20.599  0.00  0.00    +0.000 OA
ENDROOT
TORSDOF 0
REMARK  Name = ../refined-set-2016/3drg/3drg_pocket.pdb
REMARK  413 active torsions:
REMARK  status: ('A' for Active; 'I' for Inactive)
REMARK    1  A    between atoms: _1  and  _3
REMARK    2  A    between atoms: _3  and  _4
REMARK    3  A    between atoms: _3  and  _6
REMARK    4  A    between atoms: _6  and  _7
REMARK    5  A    between atoms: _12  and  _13
REMARK    6  A    between atoms: _15  and  _17
REMARK    7  A    between atoms: _17  and  _18
REMARK    8  A    between atoms: _17  and  _20
REMARK    9  A    between atoms: _20  and  _21
REMARK   10  A    between atoms: _21  and  _22
REMARK   11  A    between atoms: _27  and  _29
REMARK   12  A    between atoms: _29  and  _30
REMARK   13  A    between atoms: _29  and  _32
REMARK   14  A    between atoms: _32  and  _33
REMARK   15  A    between atoms: _35  and  _37
REMARK   16  A    between atoms: _37  and  _38
REMARK   17  A    between atoms: _37  and  _40
REMARK   18  A    between atoms: _40  and  _41
REMARK   19  A    between atoms: _44  and  _46
REMARK   20  A    between atoms: _46  and  _47
REMARK   21  A    between atoms: _46  and  _49
REMARK   22  A    between atoms: _49  and  _50
REMARK   23  A    between atoms: _52  and  _54
REMARK   24  A    between atoms: _54  and  _55
REMARK   25  A    between atoms: _54  and  _57
REMARK   26  A    between atoms: _57  and  _58
REMARK   27  A    between atoms: _61  and  _63
REMARK   28  A    between atoms: _63  and  _64
REMARK   29  A    between atoms: _63  and  _66
REMARK   30  A    between atoms: _66  and  _67
REMARK   31  A    between atoms: _69  and  _71
REMARK   32  A    between atoms: _71  and  _72
REMARK   33  A    between atoms: _74  and  _76
REMARK   34  A    between atoms: _76  and  _77
REMARK   35  A    between atoms: _76  and  _79
REMARK   36  A    between atoms: _79  and  _80
REMARK   37  A    between atoms: _82  and  _84
REMARK   38  A    between atoms: _84  and  _85
REMARK   39  A    between atoms: _84  and  _87
REMARK   40  A    between atoms: _87  and  _88
REMARK   41  A    between atoms: _93  and  _95
REMARK   42  A    between atoms: _95  and  _96
REMARK   43  A    between atoms: _95  and  _98
REMARK   44  A    between atoms: _98  and  _99
REMARK   45  A    between atoms: _102  and  _104
REMARK   46  A    between atoms: _104  and  _105
REMARK   47  A    between atoms: _108  and  _110
REMARK   48  A    between atoms: _110  and  _111
REMARK   49  A    between atoms: _110  and  _113
REMARK   50  A    between atoms: _113  and  _114
REMARK   51  A    between atoms: _117  and  _119
REMARK   52  A    between atoms: _119  and  _120
REMARK   53  A    between atoms: _119  and  _122
REMARK   54  A    between atoms: _122  and  _123
REMARK   55  A    between atoms: _129  and  _131
REMARK   56  A    between atoms: _131  and  _132
REMARK   57  A    between atoms: _135  and  _137
REMARK   58  A    between atoms: _137  and  _138
REMARK   59  A    between atoms: _137  and  _140
REMARK   60  A    between atoms: _140  and  _141
REMARK   61  A    between atoms: _144  and  _146
REMARK   62  A    between atoms: _146  and  _147
REMARK   63  A    between atoms: _146  and  _149
REMARK   64  A    between atoms: _149  and  _150
REMARK   65  A    between atoms: _152  and  _154
REMARK   66  A    between atoms: _154  and  _155
REMARK   67  A    between atoms: _157  and  _159
REMARK   68  A    between atoms: _159  and  _160
REMARK   69  A    between atoms: _162  and  _164
REMARK   70  A    between atoms: _164  and  _165
REMARK   71  A    between atoms: _164  and  _167
REMARK   72  A    between atoms: _167  and  _168
REMARK   73  A    between atoms: _168  and  _169
REMARK   74  A    between atoms: _174  and  _176
REMARK   75  A    between atoms: _176  and  _177
REMARK   76  A    between atoms: _176  and  _179
REMARK   77  A    between atoms: _179  and  _180
REMARK   78  A    between atoms: _183  and  _185
REMARK   79  A    between atoms: _185  and  _186
REMARK   80  A    between atoms: _188  and  _190
REMARK   81  A    between atoms: _190  and  _191
REMARK   82  A    between atoms: _190  and  _193
REMARK   83  A    between atoms: _193  and  _194
REMARK   84  A    between atoms: _197  and  _199
REMARK   85  A    between atoms: _199  and  _200
REMARK   86  A    between atoms: _199  and  _202
REMARK   87  A    between atoms: _202  and  _203
REMARK   88  A    between atoms: _209  and  _211
REMARK   89  A    between atoms: _211  and  _212
REMARK   90  A    between atoms: _211  and  _214
REMARK   91  A    between atoms: _214  and  _215
REMARK   92  A    between atoms: _218  and  _220
REMARK   93  A    between atoms: _220  and  _221
REMARK   94  A    between atoms: _220  and  _223
REMARK   95  A    between atoms: _223  and  _224
REMARK   96  A    between atoms: _230  and  _232
REMARK   97  A    between atoms: _232  and  _233
REMARK   98  A    between atoms: _232  and  _235
REMARK   99  A    between atoms: _235  and  _236
REMARK  100  A    between atoms: _242  and  _244
REMARK  101  A    between atoms: _244  and  _245
REMARK  102  A    between atoms: _244  and  _247
REMARK  103  A    between atoms: _247  and  _248
REMARK  104  A    between atoms: _251  and  _253
REMARK  105  A    between atoms: _253  and  _254
REMARK  106  A    between atoms: _253  and  _256
REMARK  107  A    between atoms: _256  and  _257
REMARK  108  A    between atoms: _260  and  _262
REMARK  109  A    between atoms: _262  and  _263
REMARK  110  A    between atoms: _262  and  _265
REMARK  111  A    between atoms: _265  and  _266
REMARK  112  A    between atoms: _266  and  _267
REMARK  113  A    between atoms: _267  and  _268
REMARK  114  A    between atoms: _277  and  _279
REMARK  115  A    between atoms: _279  and  _280
REMARK  116  A    between atoms: _279  and  _282
REMARK  117  A    between atoms: _282  and  _283
REMARK  118  A    between atoms: _286  and  _288
REMARK  119  A    between atoms: _288  and  _289
REMARK  120  A    between atoms: _288  and  _291
REMARK  121  A    between atoms: _291  and  _292
REMARK  122  A    between atoms: _292  and  _293
REMARK  123  A    between atoms: _298  and  _300
REMARK  124  A    between atoms: _300  and  _301
REMARK  125  A    between atoms: _300  and  _303
REMARK  126  A    between atoms: _303  and  _304
REMARK  127  A    between atoms: _306  and  _308
REMARK  128  A    between atoms: _308  and  _309
REMARK  129  A    between atoms: _311  and  _313
REMARK  130  A    between atoms: _313  and  _314
REMARK  131  A    between atoms: _313  and  _316
REMARK  132  A    between atoms: _316  and  _317
REMARK  133  A    between atoms: _322  and  _324
REMARK  134  A    between atoms: _324  and  _325
REMARK  135  A    between atoms: _327  and  _329
REMARK  136  A    between atoms: _329  and  _330
REMARK  137  A    between atoms: _329  and  _332
REMARK  138  A    between atoms: _332  and  _333
REMARK  139  A    between atoms: _339  and  _341
REMARK  140  A    between atoms: _341  and  _342
REMARK  141  A    between atoms: _341  and  _344
REMARK  142  A    between atoms: _344  and  _345
REMARK  143  A    between atoms: _348  and  _350
REMARK  144  A    between atoms: _350  and  _351
REMARK  145  A    between atoms: _350  and  _353
REMARK  146  A    between atoms: _353  and  _354
REMARK  147  A    between atoms: _354  and  _355
REMARK  148  A    between atoms: _358  and  _360
REMARK  149  A    between atoms: _360  and  _361
REMARK  150  A    between atoms: _360  and  _363
REMARK  151  A    between atoms: _363  and  _364
REMARK  152  A    between atoms: _367  and  _369
REMARK  153  A    between atoms: _369  and  _370
REMARK  154  A    between atoms: _369  and  _372
REMARK  155  A    between atoms: _375  and  _377
REMARK  156  A    between atoms: _377  and  _378
REMARK  157  A    between atoms: _377  and  _380
REMARK  158  A    between atoms: _380  and  _381
REMARK  159  A    between atoms: _384  and  _386
REMARK  160  A    between atoms: _386  and  _387
REMARK  161  A    between atoms: _386  and  _389
REMARK  162  A    between atoms: _389  and  _390
REMARK  163  A    between atoms: _395  and  _397
REMARK  164  A    between atoms: _397  and  _398
REMARK  165  A    between atoms: _400  and  _402
REMARK  166  A    between atoms: _402  and  _403
REMARK  167  A    between atoms: _402  and  _405
REMARK  168  A    between atoms: _405  and  _406
REMARK  169  A    between atoms: _406  and  _407
REMARK  170  A    between atoms: _409  and  _411
REMARK  171  A    between atoms: _411  and  _412
REMARK  172  A    between atoms: _411  and  _414
REMARK  173  A    between atoms: _417  and  _419
REMARK  174  A    between atoms: _419  and  _420
REMARK  175  A    between atoms: _419  and  _422
REMARK  176  A    between atoms: _422  and  _423
REMARK  177  A    between atoms: _425  and  _427
REMARK  178  A    between atoms: _427  and  _428
REMARK  179  A    between atoms: _427  and  _430
REMARK  180  A    between atoms: _430  and  _431
REMARK  181  A    between atoms: _433  and  _435
REMARK  182  A    between atoms: _435  and  _436
REMARK  183  A    between atoms: _435  and  _438
REMARK  184  A    between atoms: _438  and  _439
REMARK  185  A    between atoms: _439  and  _440
REMARK  186  A    between atoms: _445  and  _447
REMARK  187  A    between atoms: _447  and  _448
REMARK  188  A    between atoms: _451  and  _453
REMARK  189  A    between atoms: _453  and  _454
REMARK  190  A    between atoms: _453  and  _456
REMARK  191  A    between atoms: _456  and  _457
REMARK  192  A    between atoms: _457  and  _458
REMARK  193  A    between atoms: _460  and  _462
REMARK  194  A    between atoms: _462  and  _463
REMARK  195  A    between atoms: _462  and  _465
REMARK  196  A    between atoms: _465  and  _466
REMARK  197  A    between atoms: _471  and  _472
REMARK  198  A    between atoms: _474  and  _476
REMARK  199  A    between atoms: _476  and  _477
REMARK  200  A    between atoms: _476  and  _479
REMARK  201  A    between atoms: _479  and  _480
REMARK  202  A    between atoms: _483  and  _485
REMARK  203  A    between atoms: _485  and  _486
REMARK  204  A    between atoms: _485  and  _488
REMARK  205  A    between atoms: _488  and  _489
REMARK  206  A    between atoms: _491  and  _493
REMARK  207  A    between atoms: _493  and  _494
REMARK  208  A    between atoms: _493  and  _496
REMARK  209  A    between atoms: _496  and  _497
REMARK  210  A    between atoms: _500  and  _502
REMARK  211  A    between atoms: _502  and  _503
REMARK  212  A    between atoms: _502  and  _505
REMARK  213  A    between atoms: _505  and  _506
REMARK  214  A    between atoms: _506  and  _507
REMARK  215  A    between atoms: _509  and  _511
REMARK  216  A    between atoms: _511  and  _512
REMARK  217  A    between atoms: _511  and  _514
REMARK  218  A    between atoms: _514  and  _515
REMARK  219  A    between atoms: _520  and  _521
REMARK  220  A    between atoms: _523  and  _525
REMARK  221  A    between atoms: _525  and  _526
REMARK  222  A    between atoms: _525  and  _528
REMARK  223  A    between atoms: _528  and  _529
REMARK  224  A    between atoms: _529  and  _530
REMARK  225  A    between atoms: _530  and  _531
REMARK  226  A    between atoms: _540  and  _542
REMARK  227  A    between atoms: _542  and  _543
REMARK  228  A    between atoms: _542  and  _545
REMARK  229  A    between atoms: _545  and  _546
REMARK  230  A    between atoms: _548  and  _550
REMARK  231  A    between atoms: _550  and  _551
REMARK  232  A    between atoms: _550  and  _553
REMARK  233  A    between atoms: _553  and  _554
REMARK  234  A    between atoms: _559  and  _560
REMARK  235  A    between atoms: _562  and  _564
REMARK  236  A    between atoms: _564  and  _565
REMARK  237  A    between atoms: _568  and  _570
REMARK  238  A    between atoms: _570  and  _571
REMARK  239  A    between atoms: _574  and  _576
REMARK  240  A    between atoms: _576  and  _577
REMARK  241  A    between atoms: _576  and  _579
REMARK  242  A    between atoms: _579  and  _580
REMARK  243  A    between atoms: _580  and  _581
REMARK  244  A    between atoms: _581  and  _582
REMARK  245  A    between atoms: _591  and  _593
REMARK  246  A    between atoms: _593  and  _594
REMARK  247  A    between atoms: _593  and  _596
REMARK  248  A    between atoms: _599  and  _601
REMARK  249  A    between atoms: _601  and  _602
REMARK  250  A    between atoms: _604  and  _606
REMARK  251  A    between atoms: _606  and  _607
REMARK  252  A    between atoms: _606  and  _609
REMARK  253  A    between atoms: _609  and  _610
REMARK  254  A    between atoms: _613  and  _615
REMARK  255  A    between atoms: _615  and  _616
REMARK  256  A    between atoms: _619  and  _621
REMARK  257  A    between atoms: _621  and  _622
REMARK  258  A    between atoms: _621  and  _624
REMARK  259  A    between atoms: _624  and  _625
REMARK  260  A    between atoms: _628  and  _630
REMARK  261  A    between atoms: _630  and  _631
REMARK  262  A    between atoms: _630  and  _633
REMARK  263  A    between atoms: _633  and  _634
REMARK  264  A    between atoms: _639  and  _640
REMARK  265  A    between atoms: _642  and  _644
REMARK  266  A    between atoms: _644  and  _645
REMARK  267  A    between atoms: _644  and  _647
REMARK  268  A    between atoms: _647  and  _648
REMARK  269  A    between atoms: _648  and  _649
REMARK  270  A    between atoms: _651  and  _653
REMARK  271  A    between atoms: _653  and  _654
REMARK  272  A    between atoms: _653  and  _656
REMARK  273  A    between atoms: _656  and  _657
REMARK  274  A    between atoms: _657  and  _658
REMARK  275  A    between atoms: _661  and  _663
REMARK  276  A    between atoms: _663  and  _664
REMARK  277  A    between atoms: _663  and  _666
REMARK  278  A    between atoms: _666  and  _667
REMARK  279  A    between atoms: _673  and  _675
REMARK  280  A    between atoms: _675  and  _676
REMARK  281  A    between atoms: _675  and  _678
REMARK  282  A    between atoms: _678  and  _679
REMARK  283  A    between atoms: _684  and  _686
REMARK  284  A    between atoms: _686  and  _687
REMARK  285  A    between atoms: _686  and  _689
REMARK  286  A    between atoms: _689  and  _690
REMARK  287  A    between atoms: _700  and  _702
REMARK  288  A    between atoms: _702  and  _703
REMARK  289  A    between atoms: _702  and  _705
REMARK  290  A    between atoms: _708  and  _710
REMARK  291  A    between atoms: _710  and  _711
REMARK  292  A    between atoms: _710  and  _713
REMARK  293  A    between atoms: _713  and  _714
REMARK  294  A    between atoms: _717  and  _719
REMARK  295  A    between atoms: _719  and  _720
REMARK  296  A    between atoms: _719  and  _722
REMARK  297  A    between atoms: _722  and  _723
REMARK  298  A    between atoms: _723  and  _724
REMARK  299  A    between atoms: _726  and  _728
REMARK  300  A    between atoms: _728  and  _729
REMARK  301  A    between atoms: _728  and  _731
REMARK  302  A    between atoms: _731  and  _732
REMARK  303  A    between atoms: _735  and  _737
REMARK  304  A    between atoms: _737  and  _738
REMARK  305  A    between atoms: _737  and  _740
REMARK  306  A    between atoms: _740  and  _741
REMARK  307  A    between atoms: _744  and  _746
REMARK  308  A    between atoms: _746  and  _747
REMARK  309  A    between atoms: _746  and  _749
REMARK  310  A    between atoms: _749  and  _750
REMARK  311  A    between atoms: _753  and  _755
REMARK  312  A    between atoms: _755  and  _756
REMARK  313  A    between atoms: _755  and  _758
REMARK  314  A    between atoms: _758  and  _759
REMARK  315  A    between atoms: _762  and  _764
REMARK  316  A    between atoms: _764  and  _765
REMARK  317  A    between atoms: _767  and  _769
REMARK  318  A    between atoms: _769  and  _770
REMARK  319  A    between atoms: _769  and  _772
REMARK  320  A    between atoms: _772  and  _773
REMARK  321  A    between atoms: _775  and  _777
REMARK  322  A    between atoms: _777  and  _778
REMARK  323  A    between atoms: _777  and  _780
REMARK  324  A    between atoms: _780  and  _781
REMARK  325  A    between atoms: _791  and  _793
REMARK  326  A    between atoms: _793  and  _794
REMARK  327  A    between atoms: _793  and  _796
REMARK  328  A    between atoms: _796  and  _797
REMARK  329  A    between atoms: _799  and  _801
REMARK  330  A    between atoms: _801  and  _802
REMARK  331  A    between atoms: _801  and  _804
REMARK  332  A    between atoms: _804  and  _805
REMARK  333  A    between atoms: _808  and  _810
REMARK  334  A    between atoms: _810  and  _811
REMARK  335  A    between atoms: _814  and  _816
REMARK  336  A    between atoms: _816  and  _817
REMARK  337  A    between atoms: _816  and  _819
REMARK  338  A    between atoms: _819  and  _820
REMARK  339  A    between atoms: _822  and  _824
REMARK  340  A    between atoms: _824  and  _825
REMARK  341  A    between atoms: _824  and  _827
REMARK  342  A    between atoms: _827  and  _828
REMARK  343  A    between atoms: _828  and  _829
REMARK  344  A    between atoms: _832  and  _834
REMARK  345  A    between atoms: _834  and  _835
REMARK  346  A    between atoms: _834  and  _837
REMARK  347  A    between atoms: _837  and  _838
REMARK  348  A    between atoms: _840  and  _842
REMARK  349  A    between atoms: _842  and  _843
REMARK  350  A    between atoms: _842  and  _845
REMARK  351  A    between atoms: _845  and  _846
REMARK  352  A    between atoms: _846  and  _847
REMARK  353  A    between atoms: _852  and  _854
REMARK  354  A    between atoms: _854  and  _855
REMARK  355  A    between atoms: _854  and  _857
REMARK  356  A    between atoms: _857  and  _858
REMARK  357  A    between atoms: _858  and  _859
REMARK  358  A    between atoms: _864  and  _866
REMARK  359  A    between atoms: _866  and  _867
REMARK  360  A    between atoms: _866  and  _869
REMARK  361  A    between atoms: _869  and  _870
REMARK  362  A    between atoms: _873  and  _875
REMARK  363  A    between atoms: _875  and  _876
REMARK  364  A    between atoms: _875  and  _878
REMARK  365  A    between atoms: _878  and  _879
REMARK  366  A    between atoms: _882  and  _884
REMARK  367  A    between atoms: _884  and  _885
REMARK  368  A    between atoms: _884  and  _887
REMARK  369  A    between atoms: _887  and  _888
REMARK  370  A    between atoms: _895  and  _896
REMARK  371  A    between atoms: _901  and  _903
REMARK  372  A    between atoms: _903  and  _904
REMARK  373  A    between atoms: _903  and  _906
REMARK  374  A    between atoms: _906  and  _907
REMARK  375  A    between atoms: _912  and  _913
REMARK  376  A    between atoms: _915  and  _917
REMARK  377  A    between atoms: _917  and  _918
REMARK  378  A    between atoms: _917  and  _920
REMARK  379  A    between atoms: _920  and  _921
REMARK  380  A    between atoms: _926  and  _928
REMARK  381  A    between atoms: _928  and  _929
REMARK  382  A    between atoms: _928  and  _931
REMARK  383  A    between atoms: _931  and  _932
REMARK  384  A    between atoms: _938  and  _940
REMARK  385  A    between atoms: _940  and  _941
REMARK  386  A    between atoms: _940  and  _943
REMARK  387  A    between atoms: _943  and  _944
REMARK  388  A    between atoms: _947  and  _949
REMARK  389  A    between atoms: _949  and  _950
REMARK  390  A    between atoms: _949  and  _952
REMARK  391  A    between atoms: _952  and  _953
REMARK  392  A    between atoms: _958  and  _960
REMARK  393  A    between atoms: _960  and  _961
REMARK  394  A    between atoms: _960  and  _963
REMARK  395  A    between atoms: _963  and  _964
REMARK  396  A    between atoms: _970  and  _972
REMARK  397  A    between atoms: _972  and  _973
REMARK  398  A    between atoms: _972  and  _975
REMARK  399  A    between atoms: _975  and  _976
REMARK  400  A    between atoms: _976  and  _977
REMARK  401  A    between atoms: _979  and  _981
REMARK  402  A    between atoms: _981  and  _982
REMARK  403  A    between atoms: _981  and  _984
REMARK  404  A    between atoms: _984  and  _985
REMARK  405  A    between atoms: _988  and  _990
REMARK  406  A    between atoms: _990  and  _991
REMARK  407  A    between atoms: _990  and  _993
REMARK  408  A    between atoms: _993  and  _994
REMARK  409  A    between atoms: _999  and  _1001
REMARK  410  A    between atoms: _1001  and  _1002
REMARK  411  A    between atoms: _1001  and  _1004
REMARK  412  A    between atoms: _1004  and  _1005
REMARK  413  A    between atoms: _1010  and  _1011
REMARK                            x       y       z     vdW  Elec       q    Type
REMARK                         _______ _______ _______ _____ _____    ______ ____
ROOT
ATOM      1  O   HOH     1      -1.651  -9.883  20.627  0.00  0.00    +0.000 OA
ENDROOT
TORSDOF 0
REMARK  Name = ../refined-set-2016/3drg/3drg_pocket.pdb
REMARK  413 active torsions:
REMARK  status: ('A' for Active; 'I' for Inactive)
REMARK    1  A    between atoms: _1  and  _3
REMARK    2  A    between atoms: _3  and  _4
REMARK    3  A    between atoms: _3  and  _6
REMARK    4  A    between atoms: _6  and  _7
REMARK    5  A    between atoms: _12  and  _13
REMARK    6  A    between atoms: _15  and  _17
REMARK    7  A    between atoms: _17  and  _18
REMARK    8  A    between atoms: _17  and  _20
REMARK    9  A    between atoms: _20  and  _21
REMARK   10  A    between atoms: _21  and  _22
REMARK   11  A    between atoms: _27  and  _29
REMARK   12  A    between atoms: _29  and  _30
REMARK   13  A    between atoms: _29  and  _32
REMARK   14  A    between atoms: _32  and  _33
REMARK   15  A    between atoms: _35  and  _37
REMARK   16  A    between atoms: _37  and  _38
REMARK   17  A    between atoms: _37  and  _40
REMARK   18  A    between atoms: _40  and  _41
REMARK   19  A    between atoms: _44  and  _46
REMARK   20  A    between atoms: _46  and  _47
REMARK   21  A    between atoms: _46  and  _49
REMARK   22  A    between atoms: _49  and  _50
REMARK   23  A    between atoms: _52  and  _54
REMARK   24  A    between atoms: _54  and  _55
REMARK   25  A    between atoms: _54  and  _57
REMARK   26  A    between atoms: _57  and  _58
REMARK   27  A    between atoms: _61  and  _63
REMARK   28  A    between atoms: _63  and  _64
REMARK   29  A    between atoms: _63  and  _66
REMARK   30  A    between atoms: _66  and  _67
REMARK   31  A    between atoms: _69  and  _71
REMARK   32  A    between atoms: _71  and  _72
REMARK   33  A    between atoms: _74  and  _76
REMARK   34  A    between atoms: _76  and  _77
REMARK   35  A    between atoms: _76  and  _79
REMARK   36  A    between atoms: _79  and  _80
REMARK   37  A    between atoms: _82  and  _84
REMARK   38  A    between atoms: _84  and  _85
REMARK   39  A    between atoms: _84  and  _87
REMARK   40  A    between atoms: _87  and  _88
REMARK   41  A    between atoms: _93  and  _95
REMARK   42  A    between atoms: _95  and  _96
REMARK   43  A    between atoms: _95  and  _98
REMARK   44  A    between atoms: _98  and  _99
REMARK   45  A    between atoms: _102  and  _104
REMARK   46  A    between atoms: _104  and  _105
REMARK   47  A    between atoms: _108  and  _110
REMARK   48  A    between atoms: _110  and  _111
REMARK   49  A    between atoms: _110  and  _113
REMARK   50  A    between atoms: _113  and  _114
REMARK   51  A    between atoms: _117  and  _119
REMARK   52  A    between atoms: _119  and  _120
REMARK   53  A    between atoms: _119  and  _122
REMARK   54  A    between atoms: _122  and  _123
REMARK   55  A    between atoms: _129  and  _131
REMARK   56  A    between atoms: _131  and  _132
REMARK   57  A    between atoms: _135  and  _137
REMARK   58  A    between atoms: _137  and  _138
REMARK   59  A    between atoms: _137  and  _140
REMARK   60  A    between atoms: _140  and  _141
REMARK   61  A    between atoms: _144  and  _146
REMARK   62  A    between atoms: _146  and  _147
REMARK   63  A    between atoms: _146  and  _149
REMARK   64  A    between atoms: _149  and  _150
REMARK   65  A    between atoms: _152  and  _154
REMARK   66  A    between atoms: _154  and  _155
REMARK   67  A    between atoms: _157  and  _159
REMARK   68  A    between atoms: _159  and  _160
REMARK   69  A    between atoms: _162  and  _164
REMARK   70  A    between atoms: _164  and  _165
REMARK   71  A    between atoms: _164  and  _167
REMARK   72  A    between atoms: _167  and  _168
REMARK   73  A    between atoms: _168  and  _169
REMARK   74  A    between atoms: _174  and  _176
REMARK   75  A    between atoms: _176  and  _177
REMARK   76  A    between atoms: _176  and  _179
REMARK   77  A    between atoms: _179  and  _180
REMARK   78  A    between atoms: _183  and  _185
REMARK   79  A    between atoms: _185  and  _186
REMARK   80  A    between atoms: _188  and  _190
REMARK   81  A    between atoms: _190  and  _191
REMARK   82  A    between atoms: _190  and  _193
REMARK   83  A    between atoms: _193  and  _194
REMARK   84  A    between atoms: _197  and  _199
REMARK   85  A    between atoms: _199  and  _200
REMARK   86  A    between atoms: _199  and  _202
REMARK   87  A    between atoms: _202  and  _203
REMARK   88  A    between atoms: _209  and  _211
REMARK   89  A    between atoms: _211  and  _212
REMARK   90  A    between atoms: _211  and  _214
REMARK   91  A    between atoms: _214  and  _215
REMARK   92  A    between atoms: _218  and  _220
REMARK   93  A    between atoms: _220  and  _221
REMARK   94  A    between atoms: _220  and  _223
REMARK   95  A    between atoms: _223  and  _224
REMARK   96  A    between atoms: _230  and  _232
REMARK   97  A    between atoms: _232  and  _233
REMARK   98  A    between atoms: _232  and  _235
REMARK   99  A    between atoms: _235  and  _236
REMARK  100  A    between atoms: _242  and  _244
REMARK  101  A    between atoms: _244  and  _245
REMARK  102  A    between atoms: _244  and  _247
REMARK  103  A    between atoms: _247  and  _248
REMARK  104  A    between atoms: _251  and  _253
REMARK  105  A    between atoms: _253  and  _254
REMARK  106  A    between atoms: _253  and  _256
REMARK  107  A    between atoms: _256  and  _257
REMARK  108  A    between atoms: _260  and  _262
REMARK  109  A    between atoms: _262  and  _263
REMARK  110  A    between atoms: _262  and  _265
REMARK  111  A    between atoms: _265  and  _266
REMARK  112  A    between atoms: _266  and  _267
REMARK  113  A    between atoms: _267  and  _268
REMARK  114  A    between atoms: _277  and  _279
REMARK  115  A    between atoms: _279  and  _280
REMARK  116  A    between atoms: _279  and  _282
REMARK  117  A    between atoms: _282  and  _283
REMARK  118  A    between atoms: _286  and  _288
REMARK  119  A    between atoms: _288  and  _289
REMARK  120  A    between atoms: _288  and  _291
REMARK  121  A    between atoms: _291  and  _292
REMARK  122  A    between atoms: _292  and  _293
REMARK  123  A    between atoms: _298  and  _300
REMARK  124  A    between atoms: _300  and  _301
REMARK  125  A    between atoms: _300  and  _303
REMARK  126  A    between atoms: _303  and  _304
REMARK  127  A    between atoms: _306  and  _308
REMARK  128  A    between atoms: _308  and  _309
REMARK  129  A    between atoms: _311  and  _313
REMARK  130  A    between atoms: _313  and  _314
REMARK  131  A    between atoms: _313  and  _316
REMARK  132  A    between atoms: _316  and  _317
REMARK  133  A    between atoms: _322  and  _324
REMARK  134  A    between atoms: _324  and  _325
REMARK  135  A    between atoms: _327  and  _329
REMARK  136  A    between atoms: _329  and  _330
REMARK  137  A    between atoms: _329  and  _332
REMARK  138  A    between atoms: _332  and  _333
REMARK  139  A    between atoms: _339  and  _341
REMARK  140  A    between atoms: _341  and  _342
REMARK  141  A    between atoms: _341  and  _344
REMARK  142  A    between atoms: _344  and  _345
REMARK  143  A    between atoms: _348  and  _350
REMARK  144  A    between atoms: _350  and  _351
REMARK  145  A    between atoms: _350  and  _353
REMARK  146  A    between atoms: _353  and  _354
REMARK  147  A    between atoms: _354  and  _355
REMARK  148  A    between atoms: _358  and  _360
REMARK  149  A    between atoms: _360  and  _361
REMARK  150  A    between atoms: _360  and  _363
REMARK  151  A    between atoms: _363  and  _364
REMARK  152  A    between atoms: _367  and  _369
REMARK  153  A    between atoms: _369  and  _370
REMARK  154  A    between atoms: _369  and  _372
REMARK  155  A    between atoms: _375  and  _377
REMARK  156  A    between atoms: _377  and  _378
REMARK  157  A    between atoms: _377  and  _380
REMARK  158  A    between atoms: _380  and  _381
REMARK  159  A    between atoms: _384  and  _386
REMARK  160  A    between atoms: _386  and  _387
REMARK  161  A    between atoms: _386  and  _389
REMARK  162  A    between atoms: _389  and  _390
REMARK  163  A    between atoms: _395  and  _397
REMARK  164  A    between atoms: _397  and  _398
REMARK  165  A    between atoms: _400  and  _402
REMARK  166  A    between atoms: _402  and  _403
REMARK  167  A    between atoms: _402  and  _405
REMARK  168  A    between atoms: _405  and  _406
REMARK  169  A    between atoms: _406  and  _407
REMARK  170  A    between atoms: _409  and  _411
REMARK  171  A    between atoms: _411  and  _412
REMARK  172  A    between atoms: _411  and  _414
REMARK  173  A    between atoms: _417  and  _419
REMARK  174  A    between atoms: _419  and  _420
REMARK  175  A    between atoms: _419  and  _422
REMARK  176  A    between atoms: _422  and  _423
REMARK  177  A    between atoms: _425  and  _427
REMARK  178  A    between atoms: _427  and  _428
REMARK  179  A    between atoms: _427  and  _430
REMARK  180  A    between atoms: _430  and  _431
REMARK  181  A    between atoms: _433  and  _435
REMARK  182  A    between atoms: _435  and  _436
REMARK  183  A    between atoms: _435  and  _438
REMARK  184  A    between atoms: _438  and  _439
REMARK  185  A    between atoms: _439  and  _440
REMARK  186  A    between atoms: _445  and  _447
REMARK  187  A    between atoms: _447  and  _448
REMARK  188  A    between atoms: _451  and  _453
REMARK  189  A    between atoms: _453  and  _454
REMARK  190  A    between atoms: _453  and  _456
REMARK  191  A    between atoms: _456  and  _457
REMARK  192  A    between atoms: _457  and  _458
REMARK  193  A    between atoms: _460  and  _462
REMARK  194  A    between atoms: _462  and  _463
REMARK  195  A    between atoms: _462  and  _465
REMARK  196  A    between atoms: _465  and  _466
REMARK  197  A    between atoms: _471  and  _472
REMARK  198  A    between atoms: _474  and  _476
REMARK  199  A    between atoms: _476  and  _477
REMARK  200  A    between atoms: _476  and  _479
REMARK  201  A    between atoms: _479  and  _480
REMARK  202  A    between atoms: _483  and  _485
REMARK  203  A    between atoms: _485  and  _486
REMARK  204  A    between atoms: _485  and  _488
REMARK  205  A    between atoms: _488  and  _489
REMARK  206  A    between atoms: _491  and  _493
REMARK  207  A    between atoms: _493  and  _494
REMARK  208  A    between atoms: _493  and  _496
REMARK  209  A    between atoms: _496  and  _497
REMARK  210  A    between atoms: _500  and  _502
REMARK  211  A    between atoms: _502  and  _503
REMARK  212  A    between atoms: _502  and  _505
REMARK  213  A    between atoms: _505  and  _506
REMARK  214  A    between atoms: _506  and  _507
REMARK  215  A    between atoms: _509  and  _511
REMARK  216  A    between atoms: _511  and  _512
REMARK  217  A    between atoms: _511  and  _514
REMARK  218  A    between atoms: _514  and  _515
REMARK  219  A    between atoms: _520  and  _521
REMARK  220  A    between atoms: _523  and  _525
REMARK  221  A    between atoms: _525  and  _526
REMARK  222  A    between atoms: _525  and  _528
REMARK  223  A    between atoms: _528  and  _529
REMARK  224  A    between atoms: _529  and  _530
REMARK  225  A    between atoms: _530  and  _531
REMARK  226  A    between atoms: _540  and  _542
REMARK  227  A    between atoms: _542  and  _543
REMARK  228  A    between atoms: _542  and  _545
REMARK  229  A    between atoms: _545  and  _546
REMARK  230  A    between atoms: _548  and  _550
REMARK  231  A    between atoms: _550  and  _551
REMARK  232  A    between atoms: _550  and  _553
REMARK  233  A    between atoms: _553  and  _554
REMARK  234  A    between atoms: _559  and  _560
REMARK  235  A    between atoms: _562  and  _564
REMARK  236  A    between atoms: _564  and  _565
REMARK  237  A    between atoms: _568  and  _570
REMARK  238  A    between atoms: _570  and  _571
REMARK  239  A    between atoms: _574  and  _576
REMARK  240  A    between atoms: _576  and  _577
REMARK  241  A    between atoms: _576  and  _579
REMARK  242  A    between atoms: _579  and  _580
REMARK  243  A    between atoms: _580  and  _581
REMARK  244  A    between atoms: _581  and  _582
REMARK  245  A    between atoms: _591  and  _593
REMARK  246  A    between atoms: _593  and  _594
REMARK  247  A    between atoms: _593  and  _596
REMARK  248  A    between atoms: _599  and  _601
REMARK  249  A    between atoms: _601  and  _602
REMARK  250  A    between atoms: _604  and  _606
REMARK  251  A    between atoms: _606  and  _607
REMARK  252  A    between atoms: _606  and  _609
REMARK  253  A    between atoms: _609  and  _610
REMARK  254  A    between atoms: _613  and  _615
REMARK  255  A    between atoms: _615  and  _616
REMARK  256  A    between atoms: _619  and  _621
REMARK  257  A    between atoms: _621  and  _622
REMARK  258  A    between atoms: _621  and  _624
REMARK  259  A    between atoms: _624  and  _625
REMARK  260  A    between atoms: _628  and  _630
REMARK  261  A    between atoms: _630  and  _631
REMARK  262  A    between atoms: _630  and  _633
REMARK  263  A    between atoms: _633  and  _634
REMARK  264  A    between atoms: _639  and  _640
REMARK  265  A    between atoms: _642  and  _644
REMARK  266  A    between atoms: _644  and  _645
REMARK  267  A    between atoms: _644  and  _647
REMARK  268  A    between atoms: _647  and  _648
REMARK  269  A    between atoms: _648  and  _649
REMARK  270  A    between atoms: _651  and  _653
REMARK  271  A    between atoms: _653  and  _654
REMARK  272  A    between atoms: _653  and  _656
REMARK  273  A    between atoms: _656  and  _657
REMARK  274  A    between atoms: _657  and  _658
REMARK  275  A    between atoms: _661  and  _663
REMARK  276  A    between atoms: _663  and  _664
REMARK  277  A    between atoms: _663  and  _666
REMARK  278  A    between atoms: _666  and  _667
REMARK  279  A    between atoms: _673  and  _675
REMARK  280  A    between atoms: _675  and  _676
REMARK  281  A    between atoms: _675  and  _678
REMARK  282  A    between atoms: _678  and  _679
REMARK  283  A    between atoms: _684  and  _686
REMARK  284  A    between atoms: _686  and  _687
REMARK  285  A    between atoms: _686  and  _689
REMARK  286  A    between atoms: _689  and  _690
REMARK  287  A    between atoms: _700  and  _702
REMARK  288  A    between atoms: _702  and  _703
REMARK  289  A    between atoms: _702  and  _705
REMARK  290  A    between atoms: _708  and  _710
REMARK  291  A    between atoms: _710  and  _711
REMARK  292  A    between atoms: _710  and  _713
REMARK  293  A    between atoms: _713  and  _714
REMARK  294  A    between atoms: _717  and  _719
REMARK  295  A    between atoms: _719  and  _720
REMARK  296  A    between atoms: _719  and  _722
REMARK  297  A    between atoms: _722  and  _723
REMARK  298  A    between atoms: _723  and  _724
REMARK  299  A    between atoms: _726  and  _728
REMARK  300  A    between atoms: _728  and  _729
REMARK  301  A    between atoms: _728  and  _731
REMARK  302  A    between atoms: _731  and  _732
REMARK  303  A    between atoms: _735  and  _737
REMARK  304  A    between atoms: _737  and  _738
REMARK  305  A    between atoms: _737  and  _740
REMARK  306  A    between atoms: _740  and  _741
REMARK  307  A    between atoms: _744  and  _746
REMARK  308  A    between atoms: _746  and  _747
REMARK  309  A    between atoms: _746  and  _749
REMARK  310  A    between atoms: _749  and  _750
REMARK  311  A    between atoms: _753  and  _755
REMARK  312  A    between atoms: _755  and  _756
REMARK  313  A    between atoms: _755  and  _758
REMARK  314  A    between atoms: _758  and  _759
REMARK  315  A    between atoms: _762  and  _764
REMARK  316  A    between atoms: _764  and  _765
REMARK  317  A    between atoms: _767  and  _769
REMARK  318  A    between atoms: _769  and  _770
REMARK  319  A    between atoms: _769  and  _772
REMARK  320  A    between atoms: _772  and  _773
REMARK  321  A    between atoms: _775  and  _777
REMARK  322  A    between atoms: _777  and  _778
REMARK  323  A    between atoms: _777  and  _780
REMARK  324  A    between atoms: _780  and  _781
REMARK  325  A    between atoms: _791  and  _793
REMARK  326  A    between atoms: _793  and  _794
REMARK  327  A    between atoms: _793  and  _796
REMARK  328  A    between atoms: _796  and  _797
REMARK  329  A    between atoms: _799  and  _801
REMARK  330  A    between atoms: _801  and  _802
REMARK  331  A    between atoms: _801  and  _804
REMARK  332  A    between atoms: _804  and  _805
REMARK  333  A    between atoms: _808  and  _810
REMARK  334  A    between atoms: _810  and  _811
REMARK  335  A    between atoms: _814  and  _816
REMARK  336  A    between atoms: _816  and  _817
REMARK  337  A    between atoms: _816  and  _819
REMARK  338  A    between atoms: _819  and  _820
REMARK  339  A    between atoms: _822  and  _824
REMARK  340  A    between atoms: _824  and  _825
REMARK  341  A    between atoms: _824  and  _827
REMARK  342  A    between atoms: _827  and  _828
REMARK  343  A    between atoms: _828  and  _829
REMARK  344  A    between atoms: _832  and  _834
REMARK  345  A    between atoms: _834  and  _835
REMARK  346  A    between atoms: _834  and  _837
REMARK  347  A    between atoms: _837  and  _838
REMARK  348  A    between atoms: _840  and  _842
REMARK  349  A    between atoms: _842  and  _843
REMARK  350  A    between atoms: _842  and  _845
REMARK  351  A    between atoms: _845  and  _846
REMARK  352  A    between atoms: _846  and  _847
REMARK  353  A    between atoms: _852  and  _854
REMARK  354  A    between atoms: _854  and  _855
REMARK  355  A    between atoms: _854  and  _857
REMARK  356  A    between atoms: _857  and  _858
REMARK  357  A    between atoms: _858  and  _859
REMARK  358  A    between atoms: _864  and  _866
REMARK  359  A    between atoms: _866  and  _867
REMARK  360  A    between atoms: _866  and  _869
REMARK  361  A    between atoms: _869  and  _870
REMARK  362  A    between atoms: _873  and  _875
REMARK  363  A    between atoms: _875  and  _876
REMARK  364  A    between atoms: _875  and  _878
REMARK  365  A    between atoms: _878  and  _879
REMARK  366  A    between atoms: _882  and  _884
REMARK  367  A    between atoms: _884  and  _885
REMARK  368  A    between atoms: _884  and  _887
REMARK  369  A    between atoms: _887  and  _888
REMARK  370  A    between atoms: _895  and  _896
REMARK  371  A    between atoms: _901  and  _903
REMARK  372  A    between atoms: _903  and  _904
REMARK  373  A    between atoms: _903  and  _906
REMARK  374  A    between atoms: _906  and  _907
REMARK  375  A    between atoms: _912  and  _913
REMARK  376  A    between atoms: _915  and  _917
REMARK  377  A    between atoms: _917  and  _918
REMARK  378  A    between atoms: _917  and  _920
REMARK  379  A    between atoms: _920  and  _921
REMARK  380  A    between atoms: _926  and  _928
REMARK  381  A    between atoms: _928  and  _929
REMARK  382  A    between atoms: _928  and  _931
REMARK  383  A    between atoms: _931  and  _932
REMARK  384  A    between atoms: _938  and  _940
REMARK  385  A    between atoms: _940  and  _941
REMARK  386  A    between atoms: _940  and  _943
REMARK  387  A    between atoms: _943  and  _944
REMARK  388  A    between atoms: _947  and  _949
REMARK  389  A    between atoms: _949  and  _950
REMARK  390  A    between atoms: _949  and  _952
REMARK  391  A    between atoms: _952  and  _953
REMARK  392  A    between atoms: _958  and  _960
REMARK  393  A    between atoms: _960  and  _961
REMARK  394  A    between atoms: _960  and  _963
REMARK  395  A    between atoms: _963  and  _964
REMARK  396  A    between atoms: _970  and  _972
REMARK  397  A    between atoms: _972  and  _973
REMARK  398  A    between atoms: _972  and  _975
REMARK  399  A    between atoms: _975  and  _976
REMARK  400  A    between atoms: _976  and  _977
REMARK  401  A    between atoms: _979  and  _981
REMARK  402  A    between atoms: _981  and  _982
REMARK  403  A    between atoms: _981  and  _984
REMARK  404  A    between atoms: _984  and  _985
REMARK  405  A    between atoms: _988  and  _990
REMARK  406  A    between atoms: _990  and  _991
REMARK  407  A    between atoms: _990  and  _993
REMARK  408  A    between atoms: _993  and  _994
REMARK  409  A    between atoms: _999  and  _1001
REMARK  410  A    between atoms: _1001  and  _1002
REMARK  411  A    between atoms: _1001  and  _1004
REMARK  412  A    between atoms: _1004  and  _1005
REMARK  413  A    between atoms: _1010  and  _1011
REMARK                            x       y       z     vdW  Elec       q    Type
REMARK                         _______ _______ _______ _____ _____    ______ ____
ROOT
ATOM      1  O   HOH     1     -10.017  -2.829  16.091  0.00  0.00    +0.000 OA
ENDROOT
TORSDOF 0
REMARK  Name = ../refined-set-2016/3drg/3drg_pocket.pdb
REMARK  413 active torsions:
REMARK  status: ('A' for Active; 'I' for Inactive)
REMARK    1  A    between atoms: _1  and  _3
REMARK    2  A    between atoms: _3  and  _4
REMARK    3  A    between atoms: _3  and  _6
REMARK    4  A    between atoms: _6  and  _7
REMARK    5  A    between atoms: _12  and  _13
REMARK    6  A    between atoms: _15  and  _17
REMARK    7  A    between atoms: _17  and  _18
REMARK    8  A    between atoms: _17  and  _20
REMARK    9  A    between atoms: _20  and  _21
REMARK   10  A    between atoms: _21  and  _22
REMARK   11  A    between atoms: _27  and  _29
REMARK   12  A    between atoms: _29  and  _30
REMARK   13  A    between atoms: _29  and  _32
REMARK   14  A    between atoms: _32  and  _33
REMARK   15  A    between atoms: _35  and  _37
REMARK   16  A    between atoms: _37  and  _38
REMARK   17  A    between atoms: _37  and  _40
REMARK   18  A    between atoms: _40  and  _41
REMARK   19  A    between atoms: _44  and  _46
REMARK   20  A    between atoms: _46  and  _47
REMARK   21  A    between atoms: _46  and  _49
REMARK   22  A    between atoms: _49  and  _50
REMARK   23  A    between atoms: _52  and  _54
REMARK   24  A    between atoms: _54  and  _55
REMARK   25  A    between atoms: _54  and  _57
REMARK   26  A    between atoms: _57  and  _58
REMARK   27  A    between atoms: _61  and  _63
REMARK   28  A    between atoms: _63  and  _64
REMARK   29  A    between atoms: _63  and  _66
REMARK   30  A    between atoms: _66  and  _67
REMARK   31  A    between atoms: _69  and  _71
REMARK   32  A    between atoms: _71  and  _72
REMARK   33  A    between atoms: _74  and  _76
REMARK   34  A    between atoms: _76  and  _77
REMARK   35  A    between atoms: _76  and  _79
REMARK   36  A    between atoms: _79  and  _80
REMARK   37  A    between atoms: _82  and  _84
REMARK   38  A    between atoms: _84  and  _85
REMARK   39  A    between atoms: _84  and  _87
REMARK   40  A    between atoms: _87  and  _88
REMARK   41  A    between atoms: _93  and  _95
REMARK   42  A    between atoms: _95  and  _96
REMARK   43  A    between atoms: _95  and  _98
REMARK   44  A    between atoms: _98  and  _99
REMARK   45  A    between atoms: _102  and  _104
REMARK   46  A    between atoms: _104  and  _105
REMARK   47  A    between atoms: _108  and  _110
REMARK   48  A    between atoms: _110  and  _111
REMARK   49  A    between atoms: _110  and  _113
REMARK   50  A    between atoms: _113  and  _114
REMARK   51  A    between atoms: _117  and  _119
REMARK   52  A    between atoms: _119  and  _120
REMARK   53  A    between atoms: _119  and  _122
REMARK   54  A    between atoms: _122  and  _123
REMARK   55  A    between atoms: _129  and  _131
REMARK   56  A    between atoms: _131  and  _132
REMARK   57  A    between atoms: _135  and  _137
REMARK   58  A    between atoms: _137  and  _138
REMARK   59  A    between atoms: _137  and  _140
REMARK   60  A    between atoms: _140  and  _141
REMARK   61  A    between atoms: _144  and  _146
REMARK   62  A    between atoms: _146  and  _147
REMARK   63  A    between atoms: _146  and  _149
REMARK   64  A    between atoms: _149  and  _150
REMARK   65  A    between atoms: _152  and  _154
REMARK   66  A    between atoms: _154  and  _155
REMARK   67  A    between atoms: _157  and  _159
REMARK   68  A    between atoms: _159  and  _160
REMARK   69  A    between atoms: _162  and  _164
REMARK   70  A    between atoms: _164  and  _165
REMARK   71  A    between atoms: _164  and  _167
REMARK   72  A    between atoms: _167  and  _168
REMARK   73  A    between atoms: _168  and  _169
REMARK   74  A    between atoms: _174  and  _176
REMARK   75  A    between atoms: _176  and  _177
REMARK   76  A    between atoms: _176  and  _179
REMARK   77  A    between atoms: _179  and  _180
REMARK   78  A    between atoms: _183  and  _185
REMARK   79  A    between atoms: _185  and  _186
REMARK   80  A    between atoms: _188  and  _190
REMARK   81  A    between atoms: _190  and  _191
REMARK   82  A    between atoms: _190  and  _193
REMARK   83  A    between atoms: _193  and  _194
REMARK   84  A    between atoms: _197  and  _199
REMARK   85  A    between atoms: _199  and  _200
REMARK   86  A    between atoms: _199  and  _202
REMARK   87  A    between atoms: _202  and  _203
REMARK   88  A    between atoms: _209  and  _211
REMARK   89  A    between atoms: _211  and  _212
REMARK   90  A    between atoms: _211  and  _214
REMARK   91  A    between atoms: _214  and  _215
REMARK   92  A    between atoms: _218  and  _220
REMARK   93  A    between atoms: _220  and  _221
REMARK   94  A    between atoms: _220  and  _223
REMARK   95  A    between atoms: _223  and  _224
REMARK   96  A    between atoms: _230  and  _232
REMARK   97  A    between atoms: _232  and  _233
REMARK   98  A    between atoms: _232  and  _235
REMARK   99  A    between atoms: _235  and  _236
REMARK  100  A    between atoms: _242  and  _244
REMARK  101  A    between atoms: _244  and  _245
REMARK  102  A    between atoms: _244  and  _247
REMARK  103  A    between atoms: _247  and  _248
REMARK  104  A    between atoms: _251  and  _253
REMARK  105  A    between atoms: _253  and  _254
REMARK  106  A    between atoms: _253  and  _256
REMARK  107  A    between atoms: _256  and  _257
REMARK  108  A    between atoms: _260  and  _262
REMARK  109  A    between atoms: _262  and  _263
REMARK  110  A    between atoms: _262  and  _265
REMARK  111  A    between atoms: _265  and  _266
REMARK  112  A    between atoms: _266  and  _267
REMARK  113  A    between atoms: _267  and  _268
REMARK  114  A    between atoms: _277  and  _279
REMARK  115  A    between atoms: _279  and  _280
REMARK  116  A    between atoms: _279  and  _282
REMARK  117  A    between atoms: _282  and  _283
REMARK  118  A    between atoms: _286  and  _288
REMARK  119  A    between atoms: _288  and  _289
REMARK  120  A    between atoms: _288  and  _291
REMARK  121  A    between atoms: _291  and  _292
REMARK  122  A    between atoms: _292  and  _293
REMARK  123  A    between atoms: _298  and  _300
REMARK  124  A    between atoms: _300  and  _301
REMARK  125  A    between atoms: _300  and  _303
REMARK  126  A    between atoms: _303  and  _304
REMARK  127  A    between atoms: _306  and  _308
REMARK  128  A    between atoms: _308  and  _309
REMARK  129  A    between atoms: _311  and  _313
REMARK  130  A    between atoms: _313  and  _314
REMARK  131  A    between atoms: _313  and  _316
REMARK  132  A    between atoms: _316  and  _317
REMARK  133  A    between atoms: _322  and  _324
REMARK  134  A    between atoms: _324  and  _325
REMARK  135  A    between atoms: _327  and  _329
REMARK  136  A    between atoms: _329  and  _330
REMARK  137  A    between atoms: _329  and  _332
REMARK  138  A    between atoms: _332  and  _333
REMARK  139  A    between atoms: _339  and  _341
REMARK  140  A    between atoms: _341  and  _342
REMARK  141  A    between atoms: _341  and  _344
REMARK  142  A    between atoms: _344  and  _345
REMARK  143  A    between atoms: _348  and  _350
REMARK  144  A    between atoms: _350  and  _351
REMARK  145  A    between atoms: _350  and  _353
REMARK  146  A    between atoms: _353  and  _354
REMARK  147  A    between atoms: _354  and  _355
REMARK  148  A    between atoms: _358  and  _360
REMARK  149  A    between atoms: _360  and  _361
REMARK  150  A    between atoms: _360  and  _363
REMARK  151  A    between atoms: _363  and  _364
REMARK  152  A    between atoms: _367  and  _369
REMARK  153  A    between atoms: _369  and  _370
REMARK  154  A    between atoms: _369  and  _372
REMARK  155  A    between atoms: _375  and  _377
REMARK  156  A    between atoms: _377  and  _378
REMARK  157  A    between atoms: _377  and  _380
REMARK  158  A    between atoms: _380  and  _381
REMARK  159  A    between atoms: _384  and  _386
REMARK  160  A    between atoms: _386  and  _387
REMARK  161  A    between atoms: _386  and  _389
REMARK  162  A    between atoms: _389  and  _390
REMARK  163  A    between atoms: _395  and  _397
REMARK  164  A    between atoms: _397  and  _398
REMARK  165  A    between atoms: _400  and  _402
REMARK  166  A    between atoms: _402  and  _403
REMARK  167  A    between atoms: _402  and  _405
REMARK  168  A    between atoms: _405  and  _406
REMARK  169  A    between atoms: _406  and  _407
REMARK  170  A    between atoms: _409  and  _411
REMARK  171  A    between atoms: _411  and  _412
REMARK  172  A    between atoms: _411  and  _414
REMARK  173  A    between atoms: _417  and  _419
REMARK  174  A    between atoms: _419  and  _420
REMARK  175  A    between atoms: _419  and  _422
REMARK  176  A    between atoms: _422  and  _423
REMARK  177  A    between atoms: _425  and  _427
REMARK  178  A    between atoms: _427  and  _428
REMARK  179  A    between atoms: _427  and  _430
REMARK  180  A    between atoms: _430  and  _431
REMARK  181  A    between atoms: _433  and  _435
REMARK  182  A    between atoms: _435  and  _436
REMARK  183  A    between atoms: _435  and  _438
REMARK  184  A    between atoms: _438  and  _439
REMARK  185  A    between atoms: _439  and  _440
REMARK  186  A    between atoms: _445  and  _447
REMARK  187  A    between atoms: _447  and  _448
REMARK  188  A    between atoms: _451  and  _453
REMARK  189  A    between atoms: _453  and  _454
REMARK  190  A    between atoms: _453  and  _456
REMARK  191  A    between atoms: _456  and  _457
REMARK  192  A    between atoms: _457  and  _458
REMARK  193  A    between atoms: _460  and  _462
REMARK  194  A    between atoms: _462  and  _463
REMARK  195  A    between atoms: _462  and  _465
REMARK  196  A    between atoms: _465  and  _466
REMARK  197  A    between atoms: _471  and  _472
REMARK  198  A    between atoms: _474  and  _476
REMARK  199  A    between atoms: _476  and  _477
REMARK  200  A    between atoms: _476  and  _479
REMARK  201  A    between atoms: _479  and  _480
REMARK  202  A    between atoms: _483  and  _485
REMARK  203  A    between atoms: _485  and  _486
REMARK  204  A    between atoms: _485  and  _488
REMARK  205  A    between atoms: _488  and  _489
REMARK  206  A    between atoms: _491  and  _493
REMARK  207  A    between atoms: _493  and  _494
REMARK  208  A    between atoms: _493  and  _496
REMARK  209  A    between atoms: _496  and  _497
REMARK  210  A    between atoms: _500  and  _502
REMARK  211  A    between atoms: _502  and  _503
REMARK  212  A    between atoms: _502  and  _505
REMARK  213  A    between atoms: _505  and  _506
REMARK  214  A    between atoms: _506  and  _507
REMARK  215  A    between atoms: _509  and  _511
REMARK  216  A    between atoms: _511  and  _512
REMARK  217  A    between atoms: _511  and  _514
REMARK  218  A    between atoms: _514  and  _515
REMARK  219  A    between atoms: _520  and  _521
REMARK  220  A    between atoms: _523  and  _525
REMARK  221  A    between atoms: _525  and  _526
REMARK  222  A    between atoms: _525  and  _528
REMARK  223  A    between atoms: _528  and  _529
REMARK  224  A    between atoms: _529  and  _530
REMARK  225  A    between atoms: _530  and  _531
REMARK  226  A    between atoms: _540  and  _542
REMARK  227  A    between atoms: _542  and  _543
REMARK  228  A    between atoms: _542  and  _545
REMARK  229  A    between atoms: _545  and  _546
REMARK  230  A    between atoms: _548  and  _550
REMARK  231  A    between atoms: _550  and  _551
REMARK  232  A    between atoms: _550  and  _553
REMARK  233  A    between atoms: _553  and  _554
REMARK  234  A    between atoms: _559  and  _560
REMARK  235  A    between atoms: _562  and  _564
REMARK  236  A    between atoms: _564  and  _565
REMARK  237  A    between atoms: _568  and  _570
REMARK  238  A    between atoms: _570  and  _571
REMARK  239  A    between atoms: _574  and  _576
REMARK  240  A    between atoms: _576  and  _577
REMARK  241  A    between atoms: _576  and  _579
REMARK  242  A    between atoms: _579  and  _580
REMARK  243  A    between atoms: _580  and  _581
REMARK  244  A    between atoms: _581  and  _582
REMARK  245  A    between atoms: _591  and  _593
REMARK  246  A    between atoms: _593  and  _594
REMARK  247  A    between atoms: _593  and  _596
REMARK  248  A    between atoms: _599  and  _601
REMARK  249  A    between atoms: _601  and  _602
REMARK  250  A    between atoms: _604  and  _606
REMARK  251  A    between atoms: _606  and  _607
REMARK  252  A    between atoms: _606  and  _609
REMARK  253  A    between atoms: _609  and  _610
REMARK  254  A    between atoms: _613  and  _615
REMARK  255  A    between atoms: _615  and  _616
REMARK  256  A    between atoms: _619  and  _621
REMARK  257  A    between atoms: _621  and  _622
REMARK  258  A    between atoms: _621  and  _624
REMARK  259  A    between atoms: _624  and  _625
REMARK  260  A    between atoms: _628  and  _630
REMARK  261  A    between atoms: _630  and  _631
REMARK  262  A    between atoms: _630  and  _633
REMARK  263  A    between atoms: _633  and  _634
REMARK  264  A    between atoms: _639  and  _640
REMARK  265  A    between atoms: _642  and  _644
REMARK  266  A    between atoms: _644  and  _645
REMARK  267  A    between atoms: _644  and  _647
REMARK  268  A    between atoms: _647  and  _648
REMARK  269  A    between atoms: _648  and  _649
REMARK  270  A    between atoms: _651  and  _653
REMARK  271  A    between atoms: _653  and  _654
REMARK  272  A    between atoms: _653  and  _656
REMARK  273  A    between atoms: _656  and  _657
REMARK  274  A    between atoms: _657  and  _658
REMARK  275  A    between atoms: _661  and  _663
REMARK  276  A    between atoms: _663  and  _664
REMARK  277  A    between atoms: _663  and  _666
REMARK  278  A    between atoms: _666  and  _667
REMARK  279  A    between atoms: _673  and  _675
REMARK  280  A    between atoms: _675  and  _676
REMARK  281  A    between atoms: _675  and  _678
REMARK  282  A    between atoms: _678  and  _679
REMARK  283  A    between atoms: _684  and  _686
REMARK  284  A    between atoms: _686  and  _687
REMARK  285  A    between atoms: _686  and  _689
REMARK  286  A    between atoms: _689  and  _690
REMARK  287  A    between atoms: _700  and  _702
REMARK  288  A    between atoms: _702  and  _703
REMARK  289  A    between atoms: _702  and  _705
REMARK  290  A    between atoms: _708  and  _710
REMARK  291  A    between atoms: _710  and  _711
REMARK  292  A    between atoms: _710  and  _713
REMARK  293  A    between atoms: _713  and  _714
REMARK  294  A    between atoms: _717  and  _719
REMARK  295  A    between atoms: _719  and  _720
REMARK  296  A    between atoms: _719  and  _722
REMARK  297  A    between atoms: _722  and  _723
REMARK  298  A    between atoms: _723  and  _724
REMARK  299  A    between atoms: _726  and  _728
REMARK  300  A    between atoms: _728  and  _729
REMARK  301  A    between atoms: _728  and  _731
REMARK  302  A    between atoms: _731  and  _732
REMARK  303  A    between atoms: _735  and  _737
REMARK  304  A    between atoms: _737  and  _738
REMARK  305  A    between atoms: _737  and  _740
REMARK  306  A    between atoms: _740  and  _741
REMARK  307  A    between atoms: _744  and  _746
REMARK  308  A    between atoms: _746  and  _747
REMARK  309  A    between atoms: _746  and  _749
REMARK  310  A    between atoms: _749  and  _750
REMARK  311  A    between atoms: _753  and  _755
REMARK  312  A    between atoms: _755  and  _756
REMARK  313  A    between atoms: _755  and  _758
REMARK  314  A    between atoms: _758  and  _759
REMARK  315  A    between atoms: _762  and  _764
REMARK  316  A    between atoms: _764  and  _765
REMARK  317  A    between atoms: _767  and  _769
REMARK  318  A    between atoms: _769  and  _770
REMARK  319  A    between atoms: _769  and  _772
REMARK  320  A    between atoms: _772  and  _773
REMARK  321  A    between atoms: _775  and  _777
REMARK  322  A    between atoms: _777  and  _778
REMARK  323  A    between atoms: _777  and  _780
REMARK  324  A    between atoms: _780  and  _781
REMARK  325  A    between atoms: _791  and  _793
REMARK  326  A    between atoms: _793  and  _794
REMARK  327  A    between atoms: _793  and  _796
REMARK  328  A    between atoms: _796  and  _797
REMARK  329  A    between atoms: _799  and  _801
REMARK  330  A    between atoms: _801  and  _802
REMARK  331  A    between atoms: _801  and  _804
REMARK  332  A    between atoms: _804  and  _805
REMARK  333  A    between atoms: _808  and  _810
REMARK  334  A    between atoms: _810  and  _811
REMARK  335  A    between atoms: _814  and  _816
REMARK  336  A    between atoms: _816  and  _817
REMARK  337  A    between atoms: _816  and  _819
REMARK  338  A    between atoms: _819  and  _820
REMARK  339  A    between atoms: _822  and  _824
REMARK  340  A    between atoms: _824  and  _825
REMARK  341  A    between atoms: _824  and  _827
REMARK  342  A    between atoms: _827  and  _828
REMARK  343  A    between atoms: _828  and  _829
REMARK  344  A    between atoms: _832  and  _834
REMARK  345  A    between atoms: _834  and  _835
REMARK  346  A    between atoms: _834  and  _837
REMARK  347  A    between atoms: _837  and  _838
REMARK  348  A    between atoms: _840  and  _842
REMARK  349  A    between atoms: _842  and  _843
REMARK  350  A    between atoms: _842  and  _845
REMARK  351  A    between atoms: _845  and  _846
REMARK  352  A    between atoms: _846  and  _847
REMARK  353  A    between atoms: _852  and  _854
REMARK  354  A    between atoms: _854  and  _855
REMARK  355  A    between atoms: _854  and  _857
REMARK  356  A    between atoms: _857  and  _858
REMARK  357  A    between atoms: _858  and  _859
REMARK  358  A    between atoms: _864  and  _866
REMARK  359  A    between atoms: _866  and  _867
REMARK  360  A    between atoms: _866  and  _869
REMARK  361  A    between atoms: _869  and  _870
REMARK  362  A    between atoms: _873  and  _875
REMARK  363  A    between atoms: _875  and  _876
REMARK  364  A    between atoms: _875  and  _878
REMARK  365  A    between atoms: _878  and  _879
REMARK  366  A    between atoms: _882  and  _884
REMARK  367  A    between atoms: _884  and  _885
REMARK  368  A    between atoms: _884  and  _887
REMARK  369  A    between atoms: _887  and  _888
REMARK  370  A    between atoms: _895  and  _896
REMARK  371  A    between atoms: _901  and  _903
REMARK  372  A    between atoms: _903  and  _904
REMARK  373  A    between atoms: _903  and  _906
REMARK  374  A    between atoms: _906  and  _907
REMARK  375  A    between atoms: _912  and  _913
REMARK  376  A    between atoms: _915  and  _917
REMARK  377  A    between atoms: _917  and  _918
REMARK  378  A    between atoms: _917  and  _920
REMARK  379  A    between atoms: _920  and  _921
REMARK  380  A    between atoms: _926  and  _928
REMARK  381  A    between atoms: _928  and  _929
REMARK  382  A    between atoms: _928  and  _931
REMARK  383  A    between atoms: _931  and  _932
REMARK  384  A    between atoms: _938  and  _940
REMARK  385  A    between atoms: _940  and  _941
REMARK  386  A    between atoms: _940  and  _943
REMARK  387  A    between atoms: _943  and  _944
REMARK  388  A    between atoms: _947  and  _949
REMARK  389  A    between atoms: _949  and  _950
REMARK  390  A    between atoms: _949  and  _952
REMARK  391  A    between atoms: _952  and  _953
REMARK  392  A    between atoms: _958  and  _960
REMARK  393  A    between atoms: _960  and  _961
REMARK  394  A    between atoms: _960  and  _963
REMARK  395  A    between atoms: _963  and  _964
REMARK  396  A    between atoms: _970  and  _972
REMARK  397  A    between atoms: _972  and  _973
REMARK  398  A    between atoms: _972  and  _975
REMARK  399  A    between atoms: _975  and  _976
REMARK  400  A    between atoms: _976  and  _977
REMARK  401  A    between atoms: _979  and  _981
REMARK  402  A    between atoms: _981  and  _982
REMARK  403  A    between atoms: _981  and  _984
REMARK  404  A    between atoms: _984  and  _985
REMARK  405  A    between atoms: _988  and  _990
REMARK  406  A    between atoms: _990  and  _991
REMARK  407  A    between atoms: _990  and  _993
REMARK  408  A    between atoms: _993  and  _994
REMARK  409  A    between atoms: _999  and  _1001
REMARK  410  A    between atoms: _1001  and  _1002
REMARK  411  A    between atoms: _1001  and  _1004
REMARK  412  A    between atoms: _1004  and  _1005
REMARK  413  A    between atoms: _1010  and  _1011
REMARK                            x       y       z     vdW  Elec       q    Type
REMARK                         _______ _______ _______ _____ _____    ______ ____
ROOT
ATOM      1  O   HOH     1      -7.646 -24.961  14.846  0.00  0.00    +0.000 OA
ENDROOT
TORSDOF 0
REMARK  Name = ../refined-set-2016/3drg/3drg_pocket.pdb
REMARK  413 active torsions:
REMARK  status: ('A' for Active; 'I' for Inactive)
REMARK    1  A    between atoms: _1  and  _3
REMARK    2  A    between atoms: _3  and  _4
REMARK    3  A    between atoms: _3  and  _6
REMARK    4  A    between atoms: _6  and  _7
REMARK    5  A    between atoms: _12  and  _13
REMARK    6  A    between atoms: _15  and  _17
REMARK    7  A    between atoms: _17  and  _18
REMARK    8  A    between atoms: _17  and  _20
REMARK    9  A    between atoms: _20  and  _21
REMARK   10  A    between atoms: _21  and  _22
REMARK   11  A    between atoms: _27  and  _29
REMARK   12  A    between atoms: _29  and  _30
REMARK   13  A    between atoms: _29  and  _32
REMARK   14  A    between atoms: _32  and  _33
REMARK   15  A    between atoms: _35  and  _37
REMARK   16  A    between atoms: _37  and  _38
REMARK   17  A    between atoms: _37  and  _40
REMARK   18  A    between atoms: _40  and  _41
REMARK   19  A    between atoms: _44  and  _46
REMARK   20  A    between atoms: _46  and  _47
REMARK   21  A    between atoms: _46  and  _49
REMARK   22  A    between atoms: _49  and  _50
REMARK   23  A    between atoms: _52  and  _54
REMARK   24  A    between atoms: _54  and  _55
REMARK   25  A    between atoms: _54  and  _57
REMARK   26  A    between atoms: _57  and  _58
REMARK   27  A    between atoms: _61  and  _63
REMARK   28  A    between atoms: _63  and  _64
REMARK   29  A    between atoms: _63  and  _66
REMARK   30  A    between atoms: _66  and  _67
REMARK   31  A    between atoms: _69  and  _71
REMARK   32  A    between atoms: _71  and  _72
REMARK   33  A    between atoms: _74  and  _76
REMARK   34  A    between atoms: _76  and  _77
REMARK   35  A    between atoms: _76  and  _79
REMARK   36  A    between atoms: _79  and  _80
REMARK   37  A    between atoms: _82  and  _84
REMARK   38  A    between atoms: _84  and  _85
REMARK   39  A    between atoms: _84  and  _87
REMARK   40  A    between atoms: _87  and  _88
REMARK   41  A    between atoms: _93  and  _95
REMARK   42  A    between atoms: _95  and  _96
REMARK   43  A    between atoms: _95  and  _98
REMARK   44  A    between atoms: _98  and  _99
REMARK   45  A    between atoms: _102  and  _104
REMARK   46  A    between atoms: _104  and  _105
REMARK   47  A    between atoms: _108  and  _110
REMARK   48  A    between atoms: _110  and  _111
REMARK   49  A    between atoms: _110  and  _113
REMARK   50  A    between atoms: _113  and  _114
REMARK   51  A    between atoms: _117  and  _119
REMARK   52  A    between atoms: _119  and  _120
REMARK   53  A    between atoms: _119  and  _122
REMARK   54  A    between atoms: _122  and  _123
REMARK   55  A    between atoms: _129  and  _131
REMARK   56  A    between atoms: _131  and  _132
REMARK   57  A    between atoms: _135  and  _137
REMARK   58  A    between atoms: _137  and  _138
REMARK   59  A    between atoms: _137  and  _140
REMARK   60  A    between atoms: _140  and  _141
REMARK   61  A    between atoms: _144  and  _146
REMARK   62  A    between atoms: _146  and  _147
REMARK   63  A    between atoms: _146  and  _149
REMARK   64  A    between atoms: _149  and  _150
REMARK   65  A    between atoms: _152  and  _154
REMARK   66  A    between atoms: _154  and  _155
REMARK   67  A    between atoms: _157  and  _159
REMARK   68  A    between atoms: _159  and  _160
REMARK   69  A    between atoms: _162  and  _164
REMARK   70  A    between atoms: _164  and  _165
REMARK   71  A    between atoms: _164  and  _167
REMARK   72  A    between atoms: _167  and  _168
REMARK   73  A    between atoms: _168  and  _169
REMARK   74  A    between atoms: _174  and  _176
REMARK   75  A    between atoms: _176  and  _177
REMARK   76  A    between atoms: _176  and  _179
REMARK   77  A    between atoms: _179  and  _180
REMARK   78  A    between atoms: _183  and  _185
REMARK   79  A    between atoms: _185  and  _186
REMARK   80  A    between atoms: _188  and  _190
REMARK   81  A    between atoms: _190  and  _191
REMARK   82  A    between atoms: _190  and  _193
REMARK   83  A    between atoms: _193  and  _194
REMARK   84  A    between atoms: _197  and  _199
REMARK   85  A    between atoms: _199  and  _200
REMARK   86  A    between atoms: _199  and  _202
REMARK   87  A    between atoms: _202  and  _203
REMARK   88  A    between atoms: _209  and  _211
REMARK   89  A    between atoms: _211  and  _212
REMARK   90  A    between atoms: _211  and  _214
REMARK   91  A    between atoms: _214  and  _215
REMARK   92  A    between atoms: _218  and  _220
REMARK   93  A    between atoms: _220  and  _221
REMARK   94  A    between atoms: _220  and  _223
REMARK   95  A    between atoms: _223  and  _224
REMARK   96  A    between atoms: _230  and  _232
REMARK   97  A    between atoms: _232  and  _233
REMARK   98  A    between atoms: _232  and  _235
REMARK   99  A    between atoms: _235  and  _236
REMARK  100  A    between atoms: _242  and  _244
REMARK  101  A    between atoms: _244  and  _245
REMARK  102  A    between atoms: _244  and  _247
REMARK  103  A    between atoms: _247  and  _248
REMARK  104  A    between atoms: _251  and  _253
REMARK  105  A    between atoms: _253  and  _254
REMARK  106  A    between atoms: _253  and  _256
REMARK  107  A    between atoms: _256  and  _257
REMARK  108  A    between atoms: _260  and  _262
REMARK  109  A    between atoms: _262  and  _263
REMARK  110  A    between atoms: _262  and  _265
REMARK  111  A    between atoms: _265  and  _266
REMARK  112  A    between atoms: _266  and  _267
REMARK  113  A    between atoms: _267  and  _268
REMARK  114  A    between atoms: _277  and  _279
REMARK  115  A    between atoms: _279  and  _280
REMARK  116  A    between atoms: _279  and  _282
REMARK  117  A    between atoms: _282  and  _283
REMARK  118  A    between atoms: _286  and  _288
REMARK  119  A    between atoms: _288  and  _289
REMARK  120  A    between atoms: _288  and  _291
REMARK  121  A    between atoms: _291  and  _292
REMARK  122  A    between atoms: _292  and  _293
REMARK  123  A    between atoms: _298  and  _300
REMARK  124  A    between atoms: _300  and  _301
REMARK  125  A    between atoms: _300  and  _303
REMARK  126  A    between atoms: _303  and  _304
REMARK  127  A    between atoms: _306  and  _308
REMARK  128  A    between atoms: _308  and  _309
REMARK  129  A    between atoms: _311  and  _313
REMARK  130  A    between atoms: _313  and  _314
REMARK  131  A    between atoms: _313  and  _316
REMARK  132  A    between atoms: _316  and  _317
REMARK  133  A    between atoms: _322  and  _324
REMARK  134  A    between atoms: _324  and  _325
REMARK  135  A    between atoms: _327  and  _329
REMARK  136  A    between atoms: _329  and  _330
REMARK  137  A    between atoms: _329  and  _332
REMARK  138  A    between atoms: _332  and  _333
REMARK  139  A    between atoms: _339  and  _341
REMARK  140  A    between atoms: _341  and  _342
REMARK  141  A    between atoms: _341  and  _344
REMARK  142  A    between atoms: _344  and  _345
REMARK  143  A    between atoms: _348  and  _350
REMARK  144  A    between atoms: _350  and  _351
REMARK  145  A    between atoms: _350  and  _353
REMARK  146  A    between atoms: _353  and  _354
REMARK  147  A    between atoms: _354  and  _355
REMARK  148  A    between atoms: _358  and  _360
REMARK  149  A    between atoms: _360  and  _361
REMARK  150  A    between atoms: _360  and  _363
REMARK  151  A    between atoms: _363  and  _364
REMARK  152  A    between atoms: _367  and  _369
REMARK  153  A    between atoms: _369  and  _370
REMARK  154  A    between atoms: _369  and  _372
REMARK  155  A    between atoms: _375  and  _377
REMARK  156  A    between atoms: _377  and  _378
REMARK  157  A    between atoms: _377  and  _380
REMARK  158  A    between atoms: _380  and  _381
REMARK  159  A    between atoms: _384  and  _386
REMARK  160  A    between atoms: _386  and  _387
REMARK  161  A    between atoms: _386  and  _389
REMARK  162  A    between atoms: _389  and  _390
REMARK  163  A    between atoms: _395  and  _397
REMARK  164  A    between atoms: _397  and  _398
REMARK  165  A    between atoms: _400  and  _402
REMARK  166  A    between atoms: _402  and  _403
REMARK  167  A    between atoms: _402  and  _405
REMARK  168  A    between atoms: _405  and  _406
REMARK  169  A    between atoms: _406  and  _407
REMARK  170  A    between atoms: _409  and  _411
REMARK  171  A    between atoms: _411  and  _412
REMARK  172  A    between atoms: _411  and  _414
REMARK  173  A    between atoms: _417  and  _419
REMARK  174  A    between atoms: _419  and  _420
REMARK  175  A    between atoms: _419  and  _422
REMARK  176  A    between atoms: _422  and  _423
REMARK  177  A    between atoms: _425  and  _427
REMARK  178  A    between atoms: _427  and  _428
REMARK  179  A    between atoms: _427  and  _430
REMARK  180  A    between atoms: _430  and  _431
REMARK  181  A    between atoms: _433  and  _435
REMARK  182  A    between atoms: _435  and  _436
REMARK  183  A    between atoms: _435  and  _438
REMARK  184  A    between atoms: _438  and  _439
REMARK  185  A    between atoms: _439  and  _440
REMARK  186  A    between atoms: _445  and  _447
REMARK  187  A    between atoms: _447  and  _448
REMARK  188  A    between atoms: _451  and  _453
REMARK  189  A    between atoms: _453  and  _454
REMARK  190  A    between atoms: _453  and  _456
REMARK  191  A    between atoms: _456  and  _457
REMARK  192  A    between atoms: _457  and  _458
REMARK  193  A    between atoms: _460  and  _462
REMARK  194  A    between atoms: _462  and  _463
REMARK  195  A    between atoms: _462  and  _465
REMARK  196  A    between atoms: _465  and  _466
REMARK  197  A    between atoms: _471  and  _472
REMARK  198  A    between atoms: _474  and  _476
REMARK  199  A    between atoms: _476  and  _477
REMARK  200  A    between atoms: _476  and  _479
REMARK  201  A    between atoms: _479  and  _480
REMARK  202  A    between atoms: _483  and  _485
REMARK  203  A    between atoms: _485  and  _486
REMARK  204  A    between atoms: _485  and  _488
REMARK  205  A    between atoms: _488  and  _489
REMARK  206  A    between atoms: _491  and  _493
REMARK  207  A    between atoms: _493  and  _494
REMARK  208  A    between atoms: _493  and  _496
REMARK  209  A    between atoms: _496  and  _497
REMARK  210  A    between atoms: _500  and  _502
REMARK  211  A    between atoms: _502  and  _503
REMARK  212  A    between atoms: _502  and  _505
REMARK  213  A    between atoms: _505  and  _506
REMARK  214  A    between atoms: _506  and  _507
REMARK  215  A    between atoms: _509  and  _511
REMARK  216  A    between atoms: _511  and  _512
REMARK  217  A    between atoms: _511  and  _514
REMARK  218  A    between atoms: _514  and  _515
REMARK  219  A    between atoms: _520  and  _521
REMARK  220  A    between atoms: _523  and  _525
REMARK  221  A    between atoms: _525  and  _526
REMARK  222  A    between atoms: _525  and  _528
REMARK  223  A    between atoms: _528  and  _529
REMARK  224  A    between atoms: _529  and  _530
REMARK  225  A    between atoms: _530  and  _531
REMARK  226  A    between atoms: _540  and  _542
REMARK  227  A    between atoms: _542  and  _543
REMARK  228  A    between atoms: _542  and  _545
REMARK  229  A    between atoms: _545  and  _546
REMARK  230  A    between atoms: _548  and  _550
REMARK  231  A    between atoms: _550  and  _551
REMARK  232  A    between atoms: _550  and  _553
REMARK  233  A    between atoms: _553  and  _554
REMARK  234  A    between atoms: _559  and  _560
REMARK  235  A    between atoms: _562  and  _564
REMARK  236  A    between atoms: _564  and  _565
REMARK  237  A    between atoms: _568  and  _570
REMARK  238  A    between atoms: _570  and  _571
REMARK  239  A    between atoms: _574  and  _576
REMARK  240  A    between atoms: _576  and  _577
REMARK  241  A    between atoms: _576  and  _579
REMARK  242  A    between atoms: _579  and  _580
REMARK  243  A    between atoms: _580  and  _581
REMARK  244  A    between atoms: _581  and  _582
REMARK  245  A    between atoms: _591  and  _593
REMARK  246  A    between atoms: _593  and  _594
REMARK  247  A    between atoms: _593  and  _596
REMARK  248  A    between atoms: _599  and  _601
REMARK  249  A    between atoms: _601  and  _602
REMARK  250  A    between atoms: _604  and  _606
REMARK  251  A    between atoms: _606  and  _607
REMARK  252  A    between atoms: _606  and  _609
REMARK  253  A    between atoms: _609  and  _610
REMARK  254  A    between atoms: _613  and  _615
REMARK  255  A    between atoms: _615  and  _616
REMARK  256  A    between atoms: _619  and  _621
REMARK  257  A    between atoms: _621  and  _622
REMARK  258  A    between atoms: _621  and  _624
REMARK  259  A    between atoms: _624  and  _625
REMARK  260  A    between atoms: _628  and  _630
REMARK  261  A    between atoms: _630  and  _631
REMARK  262  A    between atoms: _630  and  _633
REMARK  263  A    between atoms: _633  and  _634
REMARK  264  A    between atoms: _639  and  _640
REMARK  265  A    between atoms: _642  and  _644
REMARK  266  A    between atoms: _644  and  _645
REMARK  267  A    between atoms: _644  and  _647
REMARK  268  A    between atoms: _647  and  _648
REMARK  269  A    between atoms: _648  and  _649
REMARK  270  A    between atoms: _651  and  _653
REMARK  271  A    between atoms: _653  and  _654
REMARK  272  A    between atoms: _653  and  _656
REMARK  273  A    between atoms: _656  and  _657
REMARK  274  A    between atoms: _657  and  _658
REMARK  275  A    between atoms: _661  and  _663
REMARK  276  A    between atoms: _663  and  _664
REMARK  277  A    between atoms: _663  and  _666
REMARK  278  A    between atoms: _666  and  _667
REMARK  279  A    between atoms: _673  and  _675
REMARK  280  A    between atoms: _675  and  _676
REMARK  281  A    between atoms: _675  and  _678
REMARK  282  A    between atoms: _678  and  _679
REMARK  283  A    between atoms: _684  and  _686
REMARK  284  A    between atoms: _686  and  _687
REMARK  285  A    between atoms: _686  and  _689
REMARK  286  A    between atoms: _689  and  _690
REMARK  287  A    between atoms: _700  and  _702
REMARK  288  A    between atoms: _702  and  _703
REMARK  289  A    between atoms: _702  and  _705
REMARK  290  A    between atoms: _708  and  _710
REMARK  291  A    between atoms: _710  and  _711
REMARK  292  A    between atoms: _710  and  _713
REMARK  293  A    between atoms: _713  and  _714
REMARK  294  A    between atoms: _717  and  _719
REMARK  295  A    between atoms: _719  and  _720
REMARK  296  A    between atoms: _719  and  _722
REMARK  297  A    between atoms: _722  and  _723
REMARK  298  A    between atoms: _723  and  _724
REMARK  299  A    between atoms: _726  and  _728
REMARK  300  A    between atoms: _728  and  _729
REMARK  301  A    between atoms: _728  and  _731
REMARK  302  A    between atoms: _731  and  _732
REMARK  303  A    between atoms: _735  and  _737
REMARK  304  A    between atoms: _737  and  _738
REMARK  305  A    between atoms: _737  and  _740
REMARK  306  A    between atoms: _740  and  _741
REMARK  307  A    between atoms: _744  and  _746
REMARK  308  A    between atoms: _746  and  _747
REMARK  309  A    between atoms: _746  and  _749
REMARK  310  A    between atoms: _749  and  _750
REMARK  311  A    between atoms: _753  and  _755
REMARK  312  A    between atoms: _755  and  _756
REMARK  313  A    between atoms: _755  and  _758
REMARK  314  A    between atoms: _758  and  _759
REMARK  315  A    between atoms: _762  and  _764
REMARK  316  A    between atoms: _764  and  _765
REMARK  317  A    between atoms: _767  and  _769
REMARK  318  A    between atoms: _769  and  _770
REMARK  319  A    between atoms: _769  and  _772
REMARK  320  A    between atoms: _772  and  _773
REMARK  321  A    between atoms: _775  and  _777
REMARK  322  A    between atoms: _777  and  _778
REMARK  323  A    between atoms: _777  and  _780
REMARK  324  A    between atoms: _780  and  _781
REMARK  325  A    between atoms: _791  and  _793
REMARK  326  A    between atoms: _793  and  _794
REMARK  327  A    between atoms: _793  and  _796
REMARK  328  A    between atoms: _796  and  _797
REMARK  329  A    between atoms: _799  and  _801
REMARK  330  A    between atoms: _801  and  _802
REMARK  331  A    between atoms: _801  and  _804
REMARK  332  A    between atoms: _804  and  _805
REMARK  333  A    between atoms: _808  and  _810
REMARK  334  A    between atoms: _810  and  _811
REMARK  335  A    between atoms: _814  and  _816
REMARK  336  A    between atoms: _816  and  _817
REMARK  337  A    between atoms: _816  and  _819
REMARK  338  A    between atoms: _819  and  _820
REMARK  339  A    between atoms: _822  and  _824
REMARK  340  A    between atoms: _824  and  _825
REMARK  341  A    between atoms: _824  and  _827
REMARK  342  A    between atoms: _827  and  _828
REMARK  343  A    between atoms: _828  and  _829
REMARK  344  A    between atoms: _832  and  _834
REMARK  345  A    between atoms: _834  and  _835
REMARK  346  A    between atoms: _834  and  _837
REMARK  347  A    between atoms: _837  and  _838
REMARK  348  A    between atoms: _840  and  _842
REMARK  349  A    between atoms: _842  and  _843
REMARK  350  A    between atoms: _842  and  _845
REMARK  351  A    between atoms: _845  and  _846
REMARK  352  A    between atoms: _846  and  _847
REMARK  353  A    between atoms: _852  and  _854
REMARK  354  A    between atoms: _854  and  _855
REMARK  355  A    between atoms: _854  and  _857
REMARK  356  A    between atoms: _857  and  _858
REMARK  357  A    between atoms: _858  and  _859
REMARK  358  A    between atoms: _864  and  _866
REMARK  359  A    between atoms: _866  and  _867
REMARK  360  A    between atoms: _866  and  _869
REMARK  361  A    between atoms: _869  and  _870
REMARK  362  A    between atoms: _873  and  _875
REMARK  363  A    between atoms: _875  and  _876
REMARK  364  A    between atoms: _875  and  _878
REMARK  365  A    between atoms: _878  and  _879
REMARK  366  A    between atoms: _882  and  _884
REMARK  367  A    between atoms: _884  and  _885
REMARK  368  A    between atoms: _884  and  _887
REMARK  369  A    between atoms: _887  and  _888
REMARK  370  A    between atoms: _895  and  _896
REMARK  371  A    between atoms: _901  and  _903
REMARK  372  A    between atoms: _903  and  _904
REMARK  373  A    between atoms: _903  and  _906
REMARK  374  A    between atoms: _906  and  _907
REMARK  375  A    between atoms: _912  and  _913
REMARK  376  A    between atoms: _915  and  _917
REMARK  377  A    between atoms: _917  and  _918
REMARK  378  A    between atoms: _917  and  _920
REMARK  379  A    between atoms: _920  and  _921
REMARK  380  A    between atoms: _926  and  _928
REMARK  381  A    between atoms: _928  and  _929
REMARK  382  A    between atoms: _928  and  _931
REMARK  383  A    between atoms: _931  and  _932
REMARK  384  A    between atoms: _938  and  _940
REMARK  385  A    between atoms: _940  and  _941
REMARK  386  A    between atoms: _940  and  _943
REMARK  387  A    between atoms: _943  and  _944
REMARK  388  A    between atoms: _947  and  _949
REMARK  389  A    between atoms: _949  and  _950
REMARK  390  A    between atoms: _949  and  _952
REMARK  391  A    between atoms: _952  and  _953
REMARK  392  A    between atoms: _958  and  _960
REMARK  393  A    between atoms: _960  and  _961
REMARK  394  A    between atoms: _960  and  _963
REMARK  395  A    between atoms: _963  and  _964
REMARK  396  A    between atoms: _970  and  _972
REMARK  397  A    between atoms: _972  and  _973
REMARK  398  A    between atoms: _972  and  _975
REMARK  399  A    between atoms: _975  and  _976
REMARK  400  A    between atoms: _976  and  _977
REMARK  401  A    between atoms: _979  and  _981
REMARK  402  A    between atoms: _981  and  _982
REMARK  403  A    between atoms: _981  and  _984
REMARK  404  A    between atoms: _984  and  _985
REMARK  405  A    between atoms: _988  and  _990
REMARK  406  A    between atoms: _990  and  _991
REMARK  407  A    between atoms: _990  and  _993
REMARK  408  A    between atoms: _993  and  _994
REMARK  409  A    between atoms: _999  and  _1001
REMARK  410  A    between atoms: _1001  and  _1002
REMARK  411  A    between atoms: _1001  and  _1004
REMARK  412  A    between atoms: _1004  and  _1005
REMARK  413  A    between atoms: _1010  and  _1011
REMARK                            x       y       z     vdW  Elec       q    Type
REMARK                         _______ _______ _______ _____ _____    ______ ____
ROOT
ATOM      1  O   HOH     1      -5.737 -23.417  24.547  0.00  0.00    +0.000 OA
ENDROOT
TORSDOF 0
REMARK  Name = ../refined-set-2016/3drg/3drg_pocket.pdb
REMARK  413 active torsions:
REMARK  status: ('A' for Active; 'I' for Inactive)
REMARK    1  A    between atoms: _1  and  _3
REMARK    2  A    between atoms: _3  and  _4
REMARK    3  A    between atoms: _3  and  _6
REMARK    4  A    between atoms: _6  and  _7
REMARK    5  A    between atoms: _12  and  _13
REMARK    6  A    between atoms: _15  and  _17
REMARK    7  A    between atoms: _17  and  _18
REMARK    8  A    between atoms: _17  and  _20
REMARK    9  A    between atoms: _20  and  _21
REMARK   10  A    between atoms: _21  and  _22
REMARK   11  A    between atoms: _27  and  _29
REMARK   12  A    between atoms: _29  and  _30
REMARK   13  A    between atoms: _29  and  _32
REMARK   14  A    between atoms: _32  and  _33
REMARK   15  A    between atoms: _35  and  _37
REMARK   16  A    between atoms: _37  and  _38
REMARK   17  A    between atoms: _37  and  _40
REMARK   18  A    between atoms: _40  and  _41
REMARK   19  A    between atoms: _44  and  _46
REMARK   20  A    between atoms: _46  and  _47
REMARK   21  A    between atoms: _46  and  _49
REMARK   22  A    between atoms: _49  and  _50
REMARK   23  A    between atoms: _52  and  _54
REMARK   24  A    between atoms: _54  and  _55
REMARK   25  A    between atoms: _54  and  _57
REMARK   26  A    between atoms: _57  and  _58
REMARK   27  A    between atoms: _61  and  _63
REMARK   28  A    between atoms: _63  and  _64
REMARK   29  A    between atoms: _63  and  _66
REMARK   30  A    between atoms: _66  and  _67
REMARK   31  A    between atoms: _69  and  _71
REMARK   32  A    between atoms: _71  and  _72
REMARK   33  A    between atoms: _74  and  _76
REMARK   34  A    between atoms: _76  and  _77
REMARK   35  A    between atoms: _76  and  _79
REMARK   36  A    between atoms: _79  and  _80
REMARK   37  A    between atoms: _82  and  _84
REMARK   38  A    between atoms: _84  and  _85
REMARK   39  A    between atoms: _84  and  _87
REMARK   40  A    between atoms: _87  and  _88
REMARK   41  A    between atoms: _93  and  _95
REMARK   42  A    between atoms: _95  and  _96
REMARK   43  A    between atoms: _95  and  _98
REMARK   44  A    between atoms: _98  and  _99
REMARK   45  A    between atoms: _102  and  _104
REMARK   46  A    between atoms: _104  and  _105
REMARK   47  A    between atoms: _108  and  _110
REMARK   48  A    between atoms: _110  and  _111
REMARK   49  A    between atoms: _110  and  _113
REMARK   50  A    between atoms: _113  and  _114
REMARK   51  A    between atoms: _117  and  _119
REMARK   52  A    between atoms: _119  and  _120
REMARK   53  A    between atoms: _119  and  _122
REMARK   54  A    between atoms: _122  and  _123
REMARK   55  A    between atoms: _129  and  _131
REMARK   56  A    between atoms: _131  and  _132
REMARK   57  A    between atoms: _135  and  _137
REMARK   58  A    between atoms: _137  and  _138
REMARK   59  A    between atoms: _137  and  _140
REMARK   60  A    between atoms: _140  and  _141
REMARK   61  A    between atoms: _144  and  _146
REMARK   62  A    between atoms: _146  and  _147
REMARK   63  A    between atoms: _146  and  _149
REMARK   64  A    between atoms: _149  and  _150
REMARK   65  A    between atoms: _152  and  _154
REMARK   66  A    between atoms: _154  and  _155
REMARK   67  A    between atoms: _157  and  _159
REMARK   68  A    between atoms: _159  and  _160
REMARK   69  A    between atoms: _162  and  _164
REMARK   70  A    between atoms: _164  and  _165
REMARK   71  A    between atoms: _164  and  _167
REMARK   72  A    between atoms: _167  and  _168
REMARK   73  A    between atoms: _168  and  _169
REMARK   74  A    between atoms: _174  and  _176
REMARK   75  A    between atoms: _176  and  _177
REMARK   76  A    between atoms: _176  and  _179
REMARK   77  A    between atoms: _179  and  _180
REMARK   78  A    between atoms: _183  and  _185
REMARK   79  A    between atoms: _185  and  _186
REMARK   80  A    between atoms: _188  and  _190
REMARK   81  A    between atoms: _190  and  _191
REMARK   82  A    between atoms: _190  and  _193
REMARK   83  A    between atoms: _193  and  _194
REMARK   84  A    between atoms: _197  and  _199
REMARK   85  A    between atoms: _199  and  _200
REMARK   86  A    between atoms: _199  and  _202
REMARK   87  A    between atoms: _202  and  _203
REMARK   88  A    between atoms: _209  and  _211
REMARK   89  A    between atoms: _211  and  _212
REMARK   90  A    between atoms: _211  and  _214
REMARK   91  A    between atoms: _214  and  _215
REMARK   92  A    between atoms: _218  and  _220
REMARK   93  A    between atoms: _220  and  _221
REMARK   94  A    between atoms: _220  and  _223
REMARK   95  A    between atoms: _223  and  _224
REMARK   96  A    between atoms: _230  and  _232
REMARK   97  A    between atoms: _232  and  _233
REMARK   98  A    between atoms: _232  and  _235
REMARK   99  A    between atoms: _235  and  _236
REMARK  100  A    between atoms: _242  and  _244
REMARK  101  A    between atoms: _244  and  _245
REMARK  102  A    between atoms: _244  and  _247
REMARK  103  A    between atoms: _247  and  _248
REMARK  104  A    between atoms: _251  and  _253
REMARK  105  A    between atoms: _253  and  _254
REMARK  106  A    between atoms: _253  and  _256
REMARK  107  A    between atoms: _256  and  _257
REMARK  108  A    between atoms: _260  and  _262
REMARK  109  A    between atoms: _262  and  _263
REMARK  110  A    between atoms: _262  and  _265
REMARK  111  A    between atoms: _265  and  _266
REMARK  112  A    between atoms: _266  and  _267
REMARK  113  A    between atoms: _267  and  _268
REMARK  114  A    between atoms: _277  and  _279
REMARK  115  A    between atoms: _279  and  _280
REMARK  116  A    between atoms: _279  and  _282
REMARK  117  A    between atoms: _282  and  _283
REMARK  118  A    between atoms: _286  and  _288
REMARK  119  A    between atoms: _288  and  _289
REMARK  120  A    between atoms: _288  and  _291
REMARK  121  A    between atoms: _291  and  _292
REMARK  122  A    between atoms: _292  and  _293
REMARK  123  A    between atoms: _298  and  _300
REMARK  124  A    between atoms: _300  and  _301
REMARK  125  A    between atoms: _300  and  _303
REMARK  126  A    between atoms: _303  and  _304
REMARK  127  A    between atoms: _306  and  _308
REMARK  128  A    between atoms: _308  and  _309
REMARK  129  A    between atoms: _311  and  _313
REMARK  130  A    between atoms: _313  and  _314
REMARK  131  A    between atoms: _313  and  _316
REMARK  132  A    between atoms: _316  and  _317
REMARK  133  A    between atoms: _322  and  _324
REMARK  134  A    between atoms: _324  and  _325
REMARK  135  A    between atoms: _327  and  _329
REMARK  136  A    between atoms: _329  and  _330
REMARK  137  A    between atoms: _329  and  _332
REMARK  138  A    between atoms: _332  and  _333
REMARK  139  A    between atoms: _339  and  _341
REMARK  140  A    between atoms: _341  and  _342
REMARK  141  A    between atoms: _341  and  _344
REMARK  142  A    between atoms: _344  and  _345
REMARK  143  A    between atoms: _348  and  _350
REMARK  144  A    between atoms: _350  and  _351
REMARK  145  A    between atoms: _350  and  _353
REMARK  146  A    between atoms: _353  and  _354
REMARK  147  A    between atoms: _354  and  _355
REMARK  148  A    between atoms: _358  and  _360
REMARK  149  A    between atoms: _360  and  _361
REMARK  150  A    between atoms: _360  and  _363
REMARK  151  A    between atoms: _363  and  _364
REMARK  152  A    between atoms: _367  and  _369
REMARK  153  A    between atoms: _369  and  _370
REMARK  154  A    between atoms: _369  and  _372
REMARK  155  A    between atoms: _375  and  _377
REMARK  156  A    between atoms: _377  and  _378
REMARK  157  A    between atoms: _377  and  _380
REMARK  158  A    between atoms: _380  and  _381
REMARK  159  A    between atoms: _384  and  _386
REMARK  160  A    between atoms: _386  and  _387
REMARK  161  A    between atoms: _386  and  _389
REMARK  162  A    between atoms: _389  and  _390
REMARK  163  A    between atoms: _395  and  _397
REMARK  164  A    between atoms: _397  and  _398
REMARK  165  A    between atoms: _400  and  _402
REMARK  166  A    between atoms: _402  and  _403
REMARK  167  A    between atoms: _402  and  _405
REMARK  168  A    between atoms: _405  and  _406
REMARK  169  A    between atoms: _406  and  _407
REMARK  170  A    between atoms: _409  and  _411
REMARK  171  A    between atoms: _411  and  _412
REMARK  172  A    between atoms: _411  and  _414
REMARK  173  A    between atoms: _417  and  _419
REMARK  174  A    between atoms: _419  and  _420
REMARK  175  A    between atoms: _419  and  _422
REMARK  176  A    between atoms: _422  and  _423
REMARK  177  A    between atoms: _425  and  _427
REMARK  178  A    between atoms: _427  and  _428
REMARK  179  A    between atoms: _427  and  _430
REMARK  180  A    between atoms: _430  and  _431
REMARK  181  A    between atoms: _433  and  _435
REMARK  182  A    between atoms: _435  and  _436
REMARK  183  A    between atoms: _435  and  _438
REMARK  184  A    between atoms: _438  and  _439
REMARK  185  A    between atoms: _439  and  _440
REMARK  186  A    between atoms: _445  and  _447
REMARK  187  A    between atoms: _447  and  _448
REMARK  188  A    between atoms: _451  and  _453
REMARK  189  A    between atoms: _453  and  _454
REMARK  190  A    between atoms: _453  and  _456
REMARK  191  A    between atoms: _456  and  _457
REMARK  192  A    between atoms: _457  and  _458
REMARK  193  A    between atoms: _460  and  _462
REMARK  194  A    between atoms: _462  and  _463
REMARK  195  A    between atoms: _462  and  _465
REMARK  196  A    between atoms: _465  and  _466
REMARK  197  A    between atoms: _471  and  _472
REMARK  198  A    between atoms: _474  and  _476
REMARK  199  A    between atoms: _476  and  _477
REMARK  200  A    between atoms: _476  and  _479
REMARK  201  A    between atoms: _479  and  _480
REMARK  202  A    between atoms: _483  and  _485
REMARK  203  A    between atoms: _485  and  _486
REMARK  204  A    between atoms: _485  and  _488
REMARK  205  A    between atoms: _488  and  _489
REMARK  206  A    between atoms: _491  and  _493
REMARK  207  A    between atoms: _493  and  _494
REMARK  208  A    between atoms: _493  and  _496
REMARK  209  A    between atoms: _496  and  _497
REMARK  210  A    between atoms: _500  and  _502
REMARK  211  A    between atoms: _502  and  _503
REMARK  212  A    between atoms: _502  and  _505
REMARK  213  A    between atoms: _505  and  _506
REMARK  214  A    between atoms: _506  and  _507
REMARK  215  A    between atoms: _509  and  _511
REMARK  216  A    between atoms: _511  and  _512
REMARK  217  A    between atoms: _511  and  _514
REMARK  218  A    between atoms: _514  and  _515
REMARK  219  A    between atoms: _520  and  _521
REMARK  220  A    between atoms: _523  and  _525
REMARK  221  A    between atoms: _525  and  _526
REMARK  222  A    between atoms: _525  and  _528
REMARK  223  A    between atoms: _528  and  _529
REMARK  224  A    between atoms: _529  and  _530
REMARK  225  A    between atoms: _530  and  _531
REMARK  226  A    between atoms: _540  and  _542
REMARK  227  A    between atoms: _542  and  _543
REMARK  228  A    between atoms: _542  and  _545
REMARK  229  A    between atoms: _545  and  _546
REMARK  230  A    between atoms: _548  and  _550
REMARK  231  A    between atoms: _550  and  _551
REMARK  232  A    between atoms: _550  and  _553
REMARK  233  A    between atoms: _553  and  _554
REMARK  234  A    between atoms: _559  and  _560
REMARK  235  A    between atoms: _562  and  _564
REMARK  236  A    between atoms: _564  and  _565
REMARK  237  A    between atoms: _568  and  _570
REMARK  238  A    between atoms: _570  and  _571
REMARK  239  A    between atoms: _574  and  _576
REMARK  240  A    between atoms: _576  and  _577
REMARK  241  A    between atoms: _576  and  _579
REMARK  242  A    between atoms: _579  and  _580
REMARK  243  A    between atoms: _580  and  _581
REMARK  244  A    between atoms: _581  and  _582
REMARK  245  A    between atoms: _591  and  _593
REMARK  246  A    between atoms: _593  and  _594
REMARK  247  A    between atoms: _593  and  _596
REMARK  248  A    between atoms: _599  and  _601
REMARK  249  A    between atoms: _601  and  _602
REMARK  250  A    between atoms: _604  and  _606
REMARK  251  A    between atoms: _606  and  _607
REMARK  252  A    between atoms: _606  and  _609
REMARK  253  A    between atoms: _609  and  _610
REMARK  254  A    between atoms: _613  and  _615
REMARK  255  A    between atoms: _615  and  _616
REMARK  256  A    between atoms: _619  and  _621
REMARK  257  A    between atoms: _621  and  _622
REMARK  258  A    between atoms: _621  and  _624
REMARK  259  A    between atoms: _624  and  _625
REMARK  260  A    between atoms: _628  and  _630
REMARK  261  A    between atoms: _630  and  _631
REMARK  262  A    between atoms: _630  and  _633
REMARK  263  A    between atoms: _633  and  _634
REMARK  264  A    between atoms: _639  and  _640
REMARK  265  A    between atoms: _642  and  _644
REMARK  266  A    between atoms: _644  and  _645
REMARK  267  A    between atoms: _644  and  _647
REMARK  268  A    between atoms: _647  and  _648
REMARK  269  A    between atoms: _648  and  _649
REMARK  270  A    between atoms: _651  and  _653
REMARK  271  A    between atoms: _653  and  _654
REMARK  272  A    between atoms: _653  and  _656
REMARK  273  A    between atoms: _656  and  _657
REMARK  274  A    between atoms: _657  and  _658
REMARK  275  A    between atoms: _661  and  _663
REMARK  276  A    between atoms: _663  and  _664
REMARK  277  A    between atoms: _663  and  _666
REMARK  278  A    between atoms: _666  and  _667
REMARK  279  A    between atoms: _673  and  _675
REMARK  280  A    between atoms: _675  and  _676
REMARK  281  A    between atoms: _675  and  _678
REMARK  282  A    between atoms: _678  and  _679
REMARK  283  A    between atoms: _684  and  _686
REMARK  284  A    between atoms: _686  and  _687
REMARK  285  A    between atoms: _686  and  _689
REMARK  286  A    between atoms: _689  and  _690
REMARK  287  A    between atoms: _700  and  _702
REMARK  288  A    between atoms: _702  and  _703
REMARK  289  A    between atoms: _702  and  _705
REMARK  290  A    between atoms: _708  and  _710
REMARK  291  A    between atoms: _710  and  _711
REMARK  292  A    between atoms: _710  and  _713
REMARK  293  A    between atoms: _713  and  _714
REMARK  294  A    between atoms: _717  and  _719
REMARK  295  A    between atoms: _719  and  _720
REMARK  296  A    between atoms: _719  and  _722
REMARK  297  A    between atoms: _722  and  _723
REMARK  298  A    between atoms: _723  and  _724
REMARK  299  A    between atoms: _726  and  _728
REMARK  300  A    between atoms: _728  and  _729
REMARK  301  A    between atoms: _728  and  _731
REMARK  302  A    between atoms: _731  and  _732
REMARK  303  A    between atoms: _735  and  _737
REMARK  304  A    between atoms: _737  and  _738
REMARK  305  A    between atoms: _737  and  _740
REMARK  306  A    between atoms: _740  and  _741
REMARK  307  A    between atoms: _744  and  _746
REMARK  308  A    between atoms: _746  and  _747
REMARK  309  A    between atoms: _746  and  _749
REMARK  310  A    between atoms: _749  and  _750
REMARK  311  A    between atoms: _753  and  _755
REMARK  312  A    between atoms: _755  and  _756
REMARK  313  A    between atoms: _755  and  _758
REMARK  314  A    between atoms: _758  and  _759
REMARK  315  A    between atoms: _762  and  _764
REMARK  316  A    between atoms: _764  and  _765
REMARK  317  A    between atoms: _767  and  _769
REMARK  318  A    between atoms: _769  and  _770
REMARK  319  A    between atoms: _769  and  _772
REMARK  320  A    between atoms: _772  and  _773
REMARK  321  A    between atoms: _775  and  _777
REMARK  322  A    between atoms: _777  and  _778
REMARK  323  A    between atoms: _777  and  _780
REMARK  324  A    between atoms: _780  and  _781
REMARK  325  A    between atoms: _791  and  _793
REMARK  326  A    between atoms: _793  and  _794
REMARK  327  A    between atoms: _793  and  _796
REMARK  328  A    between atoms: _796  and  _797
REMARK  329  A    between atoms: _799  and  _801
REMARK  330  A    between atoms: _801  and  _802
REMARK  331  A    between atoms: _801  and  _804
REMARK  332  A    between atoms: _804  and  _805
REMARK  333  A    between atoms: _808  and  _810
REMARK  334  A    between atoms: _810  and  _811
REMARK  335  A    between atoms: _814  and  _816
REMARK  336  A    between atoms: _816  and  _817
REMARK  337  A    between atoms: _816  and  _819
REMARK  338  A    between atoms: _819  and  _820
REMARK  339  A    between atoms: _822  and  _824
REMARK  340  A    between atoms: _824  and  _825
REMARK  341  A    between atoms: _824  and  _827
REMARK  342  A    between atoms: _827  and  _828
REMARK  343  A    between atoms: _828  and  _829
REMARK  344  A    between atoms: _832  and  _834
REMARK  345  A    between atoms: _834  and  _835
REMARK  346  A    between atoms: _834  and  _837
REMARK  347  A    between atoms: _837  and  _838
REMARK  348  A    between atoms: _840  and  _842
REMARK  349  A    between atoms: _842  and  _843
REMARK  350  A    between atoms: _842  and  _845
REMARK  351  A    between atoms: _845  and  _846
REMARK  352  A    between atoms: _846  and  _847
REMARK  353  A    between atoms: _852  and  _854
REMARK  354  A    between atoms: _854  and  _855
REMARK  355  A    between atoms: _854  and  _857
REMARK  356  A    between atoms: _857  and  _858
REMARK  357  A    between atoms: _858  and  _859
REMARK  358  A    between atoms: _864  and  _866
REMARK  359  A    between atoms: _866  and  _867
REMARK  360  A    between atoms: _866  and  _869
REMARK  361  A    between atoms: _869  and  _870
REMARK  362  A    between atoms: _873  and  _875
REMARK  363  A    between atoms: _875  and  _876
REMARK  364  A    between atoms: _875  and  _878
REMARK  365  A    between atoms: _878  and  _879
REMARK  366  A    between atoms: _882  and  _884
REMARK  367  A    between atoms: _884  and  _885
REMARK  368  A    between atoms: _884  and  _887
REMARK  369  A    between atoms: _887  and  _888
REMARK  370  A    between atoms: _895  and  _896
REMARK  371  A    between atoms: _901  and  _903
REMARK  372  A    between atoms: _903  and  _904
REMARK  373  A    between atoms: _903  and  _906
REMARK  374  A    between atoms: _906  and  _907
REMARK  375  A    between atoms: _912  and  _913
REMARK  376  A    between atoms: _915  and  _917
REMARK  377  A    between atoms: _917  and  _918
REMARK  378  A    between atoms: _917  and  _920
REMARK  379  A    between atoms: _920  and  _921
REMARK  380  A    between atoms: _926  and  _928
REMARK  381  A    between atoms: _928  and  _929
REMARK  382  A    between atoms: _928  and  _931
REMARK  383  A    between atoms: _931  and  _932
REMARK  384  A    between atoms: _938  and  _940
REMARK  385  A    between atoms: _940  and  _941
REMARK  386  A    between atoms: _940  and  _943
REMARK  387  A    between atoms: _943  and  _944
REMARK  388  A    between atoms: _947  and  _949
REMARK  389  A    between atoms: _949  and  _950
REMARK  390  A    between atoms: _949  and  _952
REMARK  391  A    between atoms: _952  and  _953
REMARK  392  A    between atoms: _958  and  _960
REMARK  393  A    between atoms: _960  and  _961
REMARK  394  A    between atoms: _960  and  _963
REMARK  395  A    between atoms: _963  and  _964
REMARK  396  A    between atoms: _970  and  _972
REMARK  397  A    between atoms: _972  and  _973
REMARK  398  A    between atoms: _972  and  _975
REMARK  399  A    between atoms: _975  and  _976
REMARK  400  A    between atoms: _976  and  _977
REMARK  401  A    between atoms: _979  and  _981
REMARK  402  A    between atoms: _981  and  _982
REMARK  403  A    between atoms: _981  and  _984
REMARK  404  A    between atoms: _984  and  _985
REMARK  405  A    between atoms: _988  and  _990
REMARK  406  A    between atoms: _990  and  _991
REMARK  407  A    between atoms: _990  and  _993
REMARK  408  A    between atoms: _993  and  _994
REMARK  409  A    between atoms: _999  and  _1001
REMARK  410  A    between atoms: _1001  and  _1002
REMARK  411  A    between atoms: _1001  and  _1004
REMARK  412  A    between atoms: _1004  and  _1005
REMARK  413  A    between atoms: _1010  and  _1011
REMARK                            x       y       z     vdW  Elec       q    Type
REMARK                         _______ _______ _______ _____ _____    ______ ____
ROOT
ATOM      1  O   HOH     1     -12.049   2.092  33.081  0.00  0.00    +0.000 OA
ENDROOT
TORSDOF 0
REMARK  Name = ../refined-set-2016/3drg/3drg_pocket.pdb
REMARK  413 active torsions:
REMARK  status: ('A' for Active; 'I' for Inactive)
REMARK    1  A    between atoms: _1  and  _3
REMARK    2  A    between atoms: _3  and  _4
REMARK    3  A    between atoms: _3  and  _6
REMARK    4  A    between atoms: _6  and  _7
REMARK    5  A    between atoms: _12  and  _13
REMARK    6  A    between atoms: _15  and  _17
REMARK    7  A    between atoms: _17  and  _18
REMARK    8  A    between atoms: _17  and  _20
REMARK    9  A    between atoms: _20  and  _21
REMARK   10  A    between atoms: _21  and  _22
REMARK   11  A    between atoms: _27  and  _29
REMARK   12  A    between atoms: _29  and  _30
REMARK   13  A    between atoms: _29  and  _32
REMARK   14  A    between atoms: _32  and  _33
REMARK   15  A    between atoms: _35  and  _37
REMARK   16  A    between atoms: _37  and  _38
REMARK   17  A    between atoms: _37  and  _40
REMARK   18  A    between atoms: _40  and  _41
REMARK   19  A    between atoms: _44  and  _46
REMARK   20  A    between atoms: _46  and  _47
REMARK   21  A    between atoms: _46  and  _49
REMARK   22  A    between atoms: _49  and  _50
REMARK   23  A    between atoms: _52  and  _54
REMARK   24  A    between atoms: _54  and  _55
REMARK   25  A    between atoms: _54  and  _57
REMARK   26  A    between atoms: _57  and  _58
REMARK   27  A    between atoms: _61  and  _63
REMARK   28  A    between atoms: _63  and  _64
REMARK   29  A    between atoms: _63  and  _66
REMARK   30  A    between atoms: _66  and  _67
REMARK   31  A    between atoms: _69  and  _71
REMARK   32  A    between atoms: _71  and  _72
REMARK   33  A    between atoms: _74  and  _76
REMARK   34  A    between atoms: _76  and  _77
REMARK   35  A    between atoms: _76  and  _79
REMARK   36  A    between atoms: _79  and  _80
REMARK   37  A    between atoms: _82  and  _84
REMARK   38  A    between atoms: _84  and  _85
REMARK   39  A    between atoms: _84  and  _87
REMARK   40  A    between atoms: _87  and  _88
REMARK   41  A    between atoms: _93  and  _95
REMARK   42  A    between atoms: _95  and  _96
REMARK   43  A    between atoms: _95  and  _98
REMARK   44  A    between atoms: _98  and  _99
REMARK   45  A    between atoms: _102  and  _104
REMARK   46  A    between atoms: _104  and  _105
REMARK   47  A    between atoms: _108  and  _110
REMARK   48  A    between atoms: _110  and  _111
REMARK   49  A    between atoms: _110  and  _113
REMARK   50  A    between atoms: _113  and  _114
REMARK   51  A    between atoms: _117  and  _119
REMARK   52  A    between atoms: _119  and  _120
REMARK   53  A    between atoms: _119  and  _122
REMARK   54  A    between atoms: _122  and  _123
REMARK   55  A    between atoms: _129  and  _131
REMARK   56  A    between atoms: _131  and  _132
REMARK   57  A    between atoms: _135  and  _137
REMARK   58  A    between atoms: _137  and  _138
REMARK   59  A    between atoms: _137  and  _140
REMARK   60  A    between atoms: _140  and  _141
REMARK   61  A    between atoms: _144  and  _146
REMARK   62  A    between atoms: _146  and  _147
REMARK   63  A    between atoms: _146  and  _149
REMARK   64  A    between atoms: _149  and  _150
REMARK   65  A    between atoms: _152  and  _154
REMARK   66  A    between atoms: _154  and  _155
REMARK   67  A    between atoms: _157  and  _159
REMARK   68  A    between atoms: _159  and  _160
REMARK   69  A    between atoms: _162  and  _164
REMARK   70  A    between atoms: _164  and  _165
REMARK   71  A    between atoms: _164  and  _167
REMARK   72  A    between atoms: _167  and  _168
REMARK   73  A    between atoms: _168  and  _169
REMARK   74  A    between atoms: _174  and  _176
REMARK   75  A    between atoms: _176  and  _177
REMARK   76  A    between atoms: _176  and  _179
REMARK   77  A    between atoms: _179  and  _180
REMARK   78  A    between atoms: _183  and  _185
REMARK   79  A    between atoms: _185  and  _186
REMARK   80  A    between atoms: _188  and  _190
REMARK   81  A    between atoms: _190  and  _191
REMARK   82  A    between atoms: _190  and  _193
REMARK   83  A    between atoms: _193  and  _194
REMARK   84  A    between atoms: _197  and  _199
REMARK   85  A    between atoms: _199  and  _200
REMARK   86  A    between atoms: _199  and  _202
REMARK   87  A    between atoms: _202  and  _203
REMARK   88  A    between atoms: _209  and  _211
REMARK   89  A    between atoms: _211  and  _212
REMARK   90  A    between atoms: _211  and  _214
REMARK   91  A    between atoms: _214  and  _215
REMARK   92  A    between atoms: _218  and  _220
REMARK   93  A    between atoms: _220  and  _221
REMARK   94  A    between atoms: _220  and  _223
REMARK   95  A    between atoms: _223  and  _224
REMARK   96  A    between atoms: _230  and  _232
REMARK   97  A    between atoms: _232  and  _233
REMARK   98  A    between atoms: _232  and  _235
REMARK   99  A    between atoms: _235  and  _236
REMARK  100  A    between atoms: _242  and  _244
REMARK  101  A    between atoms: _244  and  _245
REMARK  102  A    between atoms: _244  and  _247
REMARK  103  A    between atoms: _247  and  _248
REMARK  104  A    between atoms: _251  and  _253
REMARK  105  A    between atoms: _253  and  _254
REMARK  106  A    between atoms: _253  and  _256
REMARK  107  A    between atoms: _256  and  _257
REMARK  108  A    between atoms: _260  and  _262
REMARK  109  A    between atoms: _262  and  _263
REMARK  110  A    between atoms: _262  and  _265
REMARK  111  A    between atoms: _265  and  _266
REMARK  112  A    between atoms: _266  and  _267
REMARK  113  A    between atoms: _267  and  _268
REMARK  114  A    between atoms: _277  and  _279
REMARK  115  A    between atoms: _279  and  _280
REMARK  116  A    between atoms: _279  and  _282
REMARK  117  A    between atoms: _282  and  _283
REMARK  118  A    between atoms: _286  and  _288
REMARK  119  A    between atoms: _288  and  _289
REMARK  120  A    between atoms: _288  and  _291
REMARK  121  A    between atoms: _291  and  _292
REMARK  122  A    between atoms: _292  and  _293
REMARK  123  A    between atoms: _298  and  _300
REMARK  124  A    between atoms: _300  and  _301
REMARK  125  A    between atoms: _300  and  _303
REMARK  126  A    between atoms: _303  and  _304
REMARK  127  A    between atoms: _306  and  _308
REMARK  128  A    between atoms: _308  and  _309
REMARK  129  A    between atoms: _311  and  _313
REMARK  130  A    between atoms: _313  and  _314
REMARK  131  A    between atoms: _313  and  _316
REMARK  132  A    between atoms: _316  and  _317
REMARK  133  A    between atoms: _322  and  _324
REMARK  134  A    between atoms: _324  and  _325
REMARK  135  A    between atoms: _327  and  _329
REMARK  136  A    between atoms: _329  and  _330
REMARK  137  A    between atoms: _329  and  _332
REMARK  138  A    between atoms: _332  and  _333
REMARK  139  A    between atoms: _339  and  _341
REMARK  140  A    between atoms: _341  and  _342
REMARK  141  A    between atoms: _341  and  _344
REMARK  142  A    between atoms: _344  and  _345
REMARK  143  A    between atoms: _348  and  _350
REMARK  144  A    between atoms: _350  and  _351
REMARK  145  A    between atoms: _350  and  _353
REMARK  146  A    between atoms: _353  and  _354
REMARK  147  A    between atoms: _354  and  _355
REMARK  148  A    between atoms: _358  and  _360
REMARK  149  A    between atoms: _360  and  _361
REMARK  150  A    between atoms: _360  and  _363
REMARK  151  A    between atoms: _363  and  _364
REMARK  152  A    between atoms: _367  and  _369
REMARK  153  A    between atoms: _369  and  _370
REMARK  154  A    between atoms: _369  and  _372
REMARK  155  A    between atoms: _375  and  _377
REMARK  156  A    between atoms: _377  and  _378
REMARK  157  A    between atoms: _377  and  _380
REMARK  158  A    between atoms: _380  and  _381
REMARK  159  A    between atoms: _384  and  _386
REMARK  160  A    between atoms: _386  and  _387
REMARK  161  A    between atoms: _386  and  _389
REMARK  162  A    between atoms: _389  and  _390
REMARK  163  A    between atoms: _395  and  _397
REMARK  164  A    between atoms: _397  and  _398
REMARK  165  A    between atoms: _400  and  _402
REMARK  166  A    between atoms: _402  and  _403
REMARK  167  A    between atoms: _402  and  _405
REMARK  168  A    between atoms: _405  and  _406
REMARK  169  A    between atoms: _406  and  _407
REMARK  170  A    between atoms: _409  and  _411
REMARK  171  A    between atoms: _411  and  _412
REMARK  172  A    between atoms: _411  and  _414
REMARK  173  A    between atoms: _417  and  _419
REMARK  174  A    between atoms: _419  and  _420
REMARK  175  A    between atoms: _419  and  _422
REMARK  176  A    between atoms: _422  and  _423
REMARK  177  A    between atoms: _425  and  _427
REMARK  178  A    between atoms: _427  and  _428
REMARK  179  A    between atoms: _427  and  _430
REMARK  180  A    between atoms: _430  and  _431
REMARK  181  A    between atoms: _433  and  _435
REMARK  182  A    between atoms: _435  and  _436
REMARK  183  A    between atoms: _435  and  _438
REMARK  184  A    between atoms: _438  and  _439
REMARK  185  A    between atoms: _439  and  _440
REMARK  186  A    between atoms: _445  and  _447
REMARK  187  A    between atoms: _447  and  _448
REMARK  188  A    between atoms: _451  and  _453
REMARK  189  A    between atoms: _453  and  _454
REMARK  190  A    between atoms: _453  and  _456
REMARK  191  A    between atoms: _456  and  _457
REMARK  192  A    between atoms: _457  and  _458
REMARK  193  A    between atoms: _460  and  _462
REMARK  194  A    between atoms: _462  and  _463
REMARK  195  A    between atoms: _462  and  _465
REMARK  196  A    between atoms: _465  and  _466
REMARK  197  A    between atoms: _471  and  _472
REMARK  198  A    between atoms: _474  and  _476
REMARK  199  A    between atoms: _476  and  _477
REMARK  200  A    between atoms: _476  and  _479
REMARK  201  A    between atoms: _479  and  _480
REMARK  202  A    between atoms: _483  and  _485
REMARK  203  A    between atoms: _485  and  _486
REMARK  204  A    between atoms: _485  and  _488
REMARK  205  A    between atoms: _488  and  _489
REMARK  206  A    between atoms: _491  and  _493
REMARK  207  A    between atoms: _493  and  _494
REMARK  208  A    between atoms: _493  and  _496
REMARK  209  A    between atoms: _496  and  _497
REMARK  210  A    between atoms: _500  and  _502
REMARK  211  A    between atoms: _502  and  _503
REMARK  212  A    between atoms: _502  and  _505
REMARK  213  A    between atoms: _505  and  _506
REMARK  214  A    between atoms: _506  and  _507
REMARK  215  A    between atoms: _509  and  _511
REMARK  216  A    between atoms: _511  and  _512
REMARK  217  A    between atoms: _511  and  _514
REMARK  218  A    between atoms: _514  and  _515
REMARK  219  A    between atoms: _520  and  _521
REMARK  220  A    between atoms: _523  and  _525
REMARK  221  A    between atoms: _525  and  _526
REMARK  222  A    between atoms: _525  and  _528
REMARK  223  A    between atoms: _528  and  _529
REMARK  224  A    between atoms: _529  and  _530
REMARK  225  A    between atoms: _530  and  _531
REMARK  226  A    between atoms: _540  and  _542
REMARK  227  A    between atoms: _542  and  _543
REMARK  228  A    between atoms: _542  and  _545
REMARK  229  A    between atoms: _545  and  _546
REMARK  230  A    between atoms: _548  and  _550
REMARK  231  A    between atoms: _550  and  _551
REMARK  232  A    between atoms: _550  and  _553
REMARK  233  A    between atoms: _553  and  _554
REMARK  234  A    between atoms: _559  and  _560
REMARK  235  A    between atoms: _562  and  _564
REMARK  236  A    between atoms: _564  and  _565
REMARK  237  A    between atoms: _568  and  _570
REMARK  238  A    between atoms: _570  and  _571
REMARK  239  A    between atoms: _574  and  _576
REMARK  240  A    between atoms: _576  and  _577
REMARK  241  A    between atoms: _576  and  _579
REMARK  242  A    between atoms: _579  and  _580
REMARK  243  A    between atoms: _580  and  _581
REMARK  244  A    between atoms: _581  and  _582
REMARK  245  A    between atoms: _591  and  _593
REMARK  246  A    between atoms: _593  and  _594
REMARK  247  A    between atoms: _593  and  _596
REMARK  248  A    between atoms: _599  and  _601
REMARK  249  A    between atoms: _601  and  _602
REMARK  250  A    between atoms: _604  and  _606
REMARK  251  A    between atoms: _606  and  _607
REMARK  252  A    between atoms: _606  and  _609
REMARK  253  A    between atoms: _609  and  _610
REMARK  254  A    between atoms: _613  and  _615
REMARK  255  A    between atoms: _615  and  _616
REMARK  256  A    between atoms: _619  and  _621
REMARK  257  A    between atoms: _621  and  _622
REMARK  258  A    between atoms: _621  and  _624
REMARK  259  A    between atoms: _624  and  _625
REMARK  260  A    between atoms: _628  and  _630
REMARK  261  A    between atoms: _630  and  _631
REMARK  262  A    between atoms: _630  and  _633
REMARK  263  A    between atoms: _633  and  _634
REMARK  264  A    between atoms: _639  and  _640
REMARK  265  A    between atoms: _642  and  _644
REMARK  266  A    between atoms: _644  and  _645
REMARK  267  A    between atoms: _644  and  _647
REMARK  268  A    between atoms: _647  and  _648
REMARK  269  A    between atoms: _648  and  _649
REMARK  270  A    between atoms: _651  and  _653
REMARK  271  A    between atoms: _653  and  _654
REMARK  272  A    between atoms: _653  and  _656
REMARK  273  A    between atoms: _656  and  _657
REMARK  274  A    between atoms: _657  and  _658
REMARK  275  A    between atoms: _661  and  _663
REMARK  276  A    between atoms: _663  and  _664
REMARK  277  A    between atoms: _663  and  _666
REMARK  278  A    between atoms: _666  and  _667
REMARK  279  A    between atoms: _673  and  _675
REMARK  280  A    between atoms: _675  and  _676
REMARK  281  A    between atoms: _675  and  _678
REMARK  282  A    between atoms: _678  and  _679
REMARK  283  A    between atoms: _684  and  _686
REMARK  284  A    between atoms: _686  and  _687
REMARK  285  A    between atoms: _686  and  _689
REMARK  286  A    between atoms: _689  and  _690
REMARK  287  A    between atoms: _700  and  _702
REMARK  288  A    between atoms: _702  and  _703
REMARK  289  A    between atoms: _702  and  _705
REMARK  290  A    between atoms: _708  and  _710
REMARK  291  A    between atoms: _710  and  _711
REMARK  292  A    between atoms: _710  and  _713
REMARK  293  A    between atoms: _713  and  _714
REMARK  294  A    between atoms: _717  and  _719
REMARK  295  A    between atoms: _719  and  _720
REMARK  296  A    between atoms: _719  and  _722
REMARK  297  A    between atoms: _722  and  _723
REMARK  298  A    between atoms: _723  and  _724
REMARK  299  A    between atoms: _726  and  _728
REMARK  300  A    between atoms: _728  and  _729
REMARK  301  A    between atoms: _728  and  _731
REMARK  302  A    between atoms: _731  and  _732
REMARK  303  A    between atoms: _735  and  _737
REMARK  304  A    between atoms: _737  and  _738
REMARK  305  A    between atoms: _737  and  _740
REMARK  306  A    between atoms: _740  and  _741
REMARK  307  A    between atoms: _744  and  _746
REMARK  308  A    between atoms: _746  and  _747
REMARK  309  A    between atoms: _746  and  _749
REMARK  310  A    between atoms: _749  and  _750
REMARK  311  A    between atoms: _753  and  _755
REMARK  312  A    between atoms: _755  and  _756
REMARK  313  A    between atoms: _755  and  _758
REMARK  314  A    between atoms: _758  and  _759
REMARK  315  A    between atoms: _762  and  _764
REMARK  316  A    between atoms: _764  and  _765
REMARK  317  A    between atoms: _767  and  _769
REMARK  318  A    between atoms: _769  and  _770
REMARK  319  A    between atoms: _769  and  _772
REMARK  320  A    between atoms: _772  and  _773
REMARK  321  A    between atoms: _775  and  _777
REMARK  322  A    between atoms: _777  and  _778
REMARK  323  A    between atoms: _777  and  _780
REMARK  324  A    between atoms: _780  and  _781
REMARK  325  A    between atoms: _791  and  _793
REMARK  326  A    between atoms: _793  and  _794
REMARK  327  A    between atoms: _793  and  _796
REMARK  328  A    between atoms: _796  and  _797
REMARK  329  A    between atoms: _799  and  _801
REMARK  330  A    between atoms: _801  and  _802
REMARK  331  A    between atoms: _801  and  _804
REMARK  332  A    between atoms: _804  and  _805
REMARK  333  A    between atoms: _808  and  _810
REMARK  334  A    between atoms: _810  and  _811
REMARK  335  A    between atoms: _814  and  _816
REMARK  336  A    between atoms: _816  and  _817
REMARK  337  A    between atoms: _816  and  _819
REMARK  338  A    between atoms: _819  and  _820
REMARK  339  A    between atoms: _822  and  _824
REMARK  340  A    between atoms: _824  and  _825
REMARK  341  A    between atoms: _824  and  _827
REMARK  342  A    between atoms: _827  and  _828
REMARK  343  A    between atoms: _828  and  _829
REMARK  344  A    between atoms: _832  and  _834
REMARK  345  A    between atoms: _834  and  _835
REMARK  346  A    between atoms: _834  and  _837
REMARK  347  A    between atoms: _837  and  _838
REMARK  348  A    between atoms: _840  and  _842
REMARK  349  A    between atoms: _842  and  _843
REMARK  350  A    between atoms: _842  and  _845
REMARK  351  A    between atoms: _845  and  _846
REMARK  352  A    between atoms: _846  and  _847
REMARK  353  A    between atoms: _852  and  _854
REMARK  354  A    between atoms: _854  and  _855
REMARK  355  A    between atoms: _854  and  _857
REMARK  356  A    between atoms: _857  and  _858
REMARK  357  A    between atoms: _858  and  _859
REMARK  358  A    between atoms: _864  and  _866
REMARK  359  A    between atoms: _866  and  _867
REMARK  360  A    between atoms: _866  and  _869
REMARK  361  A    between atoms: _869  and  _870
REMARK  362  A    between atoms: _873  and  _875
REMARK  363  A    between atoms: _875  and  _876
REMARK  364  A    between atoms: _875  and  _878
REMARK  365  A    between atoms: _878  and  _879
REMARK  366  A    between atoms: _882  and  _884
REMARK  367  A    between atoms: _884  and  _885
REMARK  368  A    between atoms: _884  and  _887
REMARK  369  A    between atoms: _887  and  _888
REMARK  370  A    between atoms: _895  and  _896
REMARK  371  A    between atoms: _901  and  _903
REMARK  372  A    between atoms: _903  and  _904
REMARK  373  A    between atoms: _903  and  _906
REMARK  374  A    between atoms: _906  and  _907
REMARK  375  A    between atoms: _912  and  _913
REMARK  376  A    between atoms: _915  and  _917
REMARK  377  A    between atoms: _917  and  _918
REMARK  378  A    between atoms: _917  and  _920
REMARK  379  A    between atoms: _920  and  _921
REMARK  380  A    between atoms: _926  and  _928
REMARK  381  A    between atoms: _928  and  _929
REMARK  382  A    between atoms: _928  and  _931
REMARK  383  A    between atoms: _931  and  _932
REMARK  384  A    between atoms: _938  and  _940
REMARK  385  A    between atoms: _940  and  _941
REMARK  386  A    between atoms: _940  and  _943
REMARK  387  A    between atoms: _943  and  _944
REMARK  388  A    between atoms: _947  and  _949
REMARK  389  A    between atoms: _949  and  _950
REMARK  390  A    between atoms: _949  and  _952
REMARK  391  A    between atoms: _952  and  _953
REMARK  392  A    between atoms: _958  and  _960
REMARK  393  A    between atoms: _960  and  _961
REMARK  394  A    between atoms: _960  and  _963
REMARK  395  A    between atoms: _963  and  _964
REMARK  396  A    between atoms: _970  and  _972
REMARK  397  A    between atoms: _972  and  _973
REMARK  398  A    between atoms: _972  and  _975
REMARK  399  A    between atoms: _975  and  _976
REMARK  400  A    between atoms: _976  and  _977
REMARK  401  A    between atoms: _979  and  _981
REMARK  402  A    between atoms: _981  and  _982
REMARK  403  A    between atoms: _981  and  _984
REMARK  404  A    between atoms: _984  and  _985
REMARK  405  A    between atoms: _988  and  _990
REMARK  406  A    between atoms: _990  and  _991
REMARK  407  A    between atoms: _990  and  _993
REMARK  408  A    between atoms: _993  and  _994
REMARK  409  A    between atoms: _999  and  _1001
REMARK  410  A    between atoms: _1001  and  _1002
REMARK  411  A    between atoms: _1001  and  _1004
REMARK  412  A    between atoms: _1004  and  _1005
REMARK  413  A    between atoms: _1010  and  _1011
REMARK                            x       y       z     vdW  Elec       q    Type
REMARK                         _______ _______ _______ _____ _____    ______ ____
ROOT
ATOM      1  O   HOH     1      -9.914   0.102  15.453  0.00  0.00    +0.000 OA
ENDROOT
TORSDOF 0
