REMARK  Name = ../refined-set-2016/1b6k/1b6k_pocket.pdb
REMARK  215 active torsions:
REMARK  status: ('A' for Active; 'I' for Inactive)
REMARK    1  A    between atoms: _1  and  _3
REMARK    2  A    between atoms: _3  and  _4
REMARK    3  A    between atoms: _3  and  _6
REMARK    4  A    between atoms: _6  and  _7
REMARK    5  A    between atoms: _7  and  _8
REMARK    6  A    between atoms: _8  and  _9
REMARK    7  A    between atoms: _18  and  _20
REMARK    8  A    between atoms: _20  and  _21
REMARK    9  A    between atoms: _20  and  _23
REMARK   10  A    between atoms: _23  and  _24
REMARK   11  A    between atoms: _27  and  _29
REMARK   12  A    between atoms: _29  and  _30
REMARK   13  A    between atoms: _29  and  _32
REMARK   14  A    between atoms: _32  and  _33
REMARK   15  A    between atoms: _36  and  _38
REMARK   16  A    between atoms: _38  and  _39
REMARK   17  A    between atoms: _38  and  _41
REMARK   18  A    between atoms: _41  and  _42
REMARK   19  A    between atoms: _45  and  _47
REMARK   20  A    between atoms: _47  and  _48
REMARK   21  A    between atoms: _47  and  _50
REMARK   22  A    between atoms: _50  and  _51
REMARK   23  A    between atoms: _54  and  _56
REMARK   24  A    between atoms: _56  and  _57
REMARK   25  A    between atoms: _59  and  _61
REMARK   26  A    between atoms: _61  and  _62
REMARK   27  A    between atoms: _65  and  _67
REMARK   28  A    between atoms: _67  and  _68
REMARK   29  A    between atoms: _67  and  _70
REMARK   30  A    between atoms: _70  and  _71
REMARK   31  A    between atoms: _74  and  _76
REMARK   32  A    between atoms: _76  and  _77
REMARK   33  A    between atoms: _76  and  _79
REMARK   34  A    between atoms: _79  and  _80
REMARK   35  A    between atoms: _83  and  _85
REMARK   36  A    between atoms: _85  and  _86
REMARK   37  A    between atoms: _85  and  _88
REMARK   38  A    between atoms: _88  and  _89
REMARK   39  A    between atoms: _92  and  _94
REMARK   40  A    between atoms: _94  and  _95
REMARK   41  A    between atoms: _94  and  _97
REMARK   42  A    between atoms: _100  and  _102
REMARK   43  A    between atoms: _102  and  _103
REMARK   44  A    between atoms: _102  and  _105
REMARK   45  A    between atoms: _105  and  _106
REMARK   46  A    between atoms: _106  and  _107
REMARK   47  A    between atoms: _109  and  _111
REMARK   48  A    between atoms: _111  and  _112
REMARK   49  A    between atoms: _111  and  _114
REMARK   50  A    between atoms: _114  and  _115
REMARK   51  A    between atoms: _118  and  _120
REMARK   52  A    between atoms: _120  and  _121
REMARK   53  A    between atoms: _123  and  _125
REMARK   54  A    between atoms: _125  and  _126
REMARK   55  A    between atoms: _128  and  _130
REMARK   56  A    between atoms: _130  and  _131
REMARK   57  A    between atoms: _130  and  _133
REMARK   58  A    between atoms: _133  and  _134
REMARK   59  A    between atoms: _137  and  _139
REMARK   60  A    between atoms: _139  and  _140
REMARK   61  A    between atoms: _142  and  _144
REMARK   62  A    between atoms: _144  and  _145
REMARK   63  A    between atoms: _147  and  _149
REMARK   64  A    between atoms: _149  and  _150
REMARK   65  A    between atoms: _149  and  _152
REMARK   66  A    between atoms: _152  and  _153
REMARK   67  A    between atoms: _159  and  _161
REMARK   68  A    between atoms: _161  and  _162
REMARK   69  A    between atoms: _161  and  _164
REMARK   70  A    between atoms: _164  and  _165
REMARK   71  A    between atoms: _168  and  _170
REMARK   72  A    between atoms: _170  and  _171
REMARK   73  A    between atoms: _170  and  _173
REMARK   74  A    between atoms: _173  and  _174
REMARK   75  A    between atoms: _177  and  _179
REMARK   76  A    between atoms: _179  and  _180
REMARK   77  A    between atoms: _179  and  _182
REMARK   78  A    between atoms: _182  and  _183
REMARK   79  A    between atoms: _187  and  _188
REMARK   80  A    between atoms: _193  and  _195
REMARK   81  A    between atoms: _195  and  _196
REMARK   82  A    between atoms: _195  and  _198
REMARK   83  A    between atoms: _201  and  _203
REMARK   84  A    between atoms: _203  and  _204
REMARK   85  A    between atoms: _203  and  _206
REMARK   86  A    between atoms: _206  and  _207
REMARK   87  A    between atoms: _212  and  _214
REMARK   88  A    between atoms: _214  and  _215
REMARK   89  A    between atoms: _214  and  _217
REMARK   90  A    between atoms: _217  and  _218
REMARK   91  A    between atoms: _221  and  _223
REMARK   92  A    between atoms: _223  and  _224
REMARK   93  A    between atoms: _223  and  _226
REMARK   94  A    between atoms: _226  and  _227
REMARK   95  A    between atoms: _230  and  _232
REMARK   96  A    between atoms: _232  and  _233
REMARK   97  A    between atoms: _235  and  _237
REMARK   98  A    between atoms: _237  and  _238
REMARK   99  A    between atoms: _237  and  _240
REMARK  100  A    between atoms: _240  and  _241
REMARK  101  A    between atoms: _241  and  _242
REMARK  102  A    between atoms: _242  and  _243
REMARK  103  A    between atoms: _252  and  _254
REMARK  104  A    between atoms: _254  and  _255
REMARK  105  A    between atoms: _254  and  _257
REMARK  106  A    between atoms: _257  and  _258
REMARK  107  A    between atoms: _258  and  _259
REMARK  108  A    between atoms: _259  and  _260
REMARK  109  A    between atoms: _269  and  _271
REMARK  110  A    between atoms: _271  and  _272
REMARK  111  A    between atoms: _271  and  _274
REMARK  112  A    between atoms: _274  and  _275
REMARK  113  A    between atoms: _278  and  _280
REMARK  114  A    between atoms: _280  and  _281
REMARK  115  A    between atoms: _280  and  _283
REMARK  116  A    between atoms: _283  and  _284
REMARK  117  A    between atoms: _287  and  _289
REMARK  118  A    between atoms: _289  and  _290
REMARK  119  A    between atoms: _289  and  _292
REMARK  120  A    between atoms: _292  and  _293
REMARK  121  A    between atoms: _296  and  _298
REMARK  122  A    between atoms: _298  and  _299
REMARK  123  A    between atoms: _298  and  _301
REMARK  124  A    between atoms: _301  and  _302
REMARK  125  A    between atoms: _305  and  _307
REMARK  126  A    between atoms: _307  and  _308
REMARK  127  A    between atoms: _307  and  _310
REMARK  128  A    between atoms: _310  and  _311
REMARK  129  A    between atoms: _314  and  _316
REMARK  130  A    between atoms: _316  and  _317
REMARK  131  A    between atoms: _319  and  _321
REMARK  132  A    between atoms: _321  and  _322
REMARK  133  A    between atoms: _325  and  _327
REMARK  134  A    between atoms: _327  and  _328
REMARK  135  A    between atoms: _327  and  _330
REMARK  136  A    between atoms: _330  and  _331
REMARK  137  A    between atoms: _334  and  _336
REMARK  138  A    between atoms: _336  and  _337
REMARK  139  A    between atoms: _336  and  _339
REMARK  140  A    between atoms: _339  and  _340
REMARK  141  A    between atoms: _343  and  _345
REMARK  142  A    between atoms: _345  and  _346
REMARK  143  A    between atoms: _345  and  _348
REMARK  144  A    between atoms: _348  and  _349
REMARK  145  A    between atoms: _352  and  _354
REMARK  146  A    between atoms: _354  and  _355
REMARK  147  A    between atoms: _354  and  _357
REMARK  148  A    between atoms: _360  and  _362
REMARK  149  A    between atoms: _362  and  _363
REMARK  150  A    between atoms: _362  and  _365
REMARK  151  A    between atoms: _365  and  _366
REMARK  152  A    between atoms: _366  and  _367
REMARK  153  A    between atoms: _367  and  _368
REMARK  154  A    between atoms: _368  and  _369
REMARK  155  A    between atoms: _373  and  _375
REMARK  156  A    between atoms: _375  and  _376
REMARK  157  A    between atoms: _375  and  _378
REMARK  158  A    between atoms: _378  and  _379
REMARK  159  A    between atoms: _379  and  _380
REMARK  160  A    between atoms: _382  and  _384
REMARK  161  A    between atoms: _384  and  _385
REMARK  162  A    between atoms: _384  and  _387
REMARK  163  A    between atoms: _387  and  _388
REMARK  164  A    between atoms: _391  and  _393
REMARK  165  A    between atoms: _393  and  _394
REMARK  166  A    between atoms: _396  and  _398
REMARK  167  A    between atoms: _398  and  _399
REMARK  168  A    between atoms: _401  and  _403
REMARK  169  A    between atoms: _403  and  _404
REMARK  170  A    between atoms: _403  and  _406
REMARK  171  A    between atoms: _406  and  _407
REMARK  172  A    between atoms: _410  and  _412
REMARK  173  A    between atoms: _412  and  _413
REMARK  174  A    between atoms: _415  and  _417
REMARK  175  A    between atoms: _417  and  _418
REMARK  176  A    between atoms: _420  and  _422
REMARK  177  A    between atoms: _422  and  _423
REMARK  178  A    between atoms: _422  and  _425
REMARK  179  A    between atoms: _425  and  _426
REMARK  180  A    between atoms: _432  and  _434
REMARK  181  A    between atoms: _434  and  _435
REMARK  182  A    between atoms: _434  and  _437
REMARK  183  A    between atoms: _437  and  _438
REMARK  184  A    between atoms: _441  and  _443
REMARK  185  A    between atoms: _443  and  _444
REMARK  186  A    between atoms: _443  and  _446
REMARK  187  A    between atoms: _446  and  _447
REMARK  188  A    between atoms: _450  and  _452
REMARK  189  A    between atoms: _452  and  _453
REMARK  190  A    between atoms: _452  and  _455
REMARK  191  A    between atoms: _455  and  _456
REMARK  192  A    between atoms: _460  and  _461
REMARK  193  A    between atoms: _466  and  _468
REMARK  194  A    between atoms: _468  and  _469
REMARK  195  A    between atoms: _468  and  _471
REMARK  196  A    between atoms: _474  and  _476
REMARK  197  A    between atoms: _476  and  _477
REMARK  198  A    between atoms: _476  and  _479
REMARK  199  A    between atoms: _479  and  _480
REMARK  200  A    between atoms: _485  and  _487
REMARK  201  A    between atoms: _487  and  _488
REMARK  202  A    between atoms: _487  and  _490
REMARK  203  A    between atoms: _490  and  _491
REMARK  204  A    between atoms: _494  and  _496
REMARK  205  A    between atoms: _496  and  _497
REMARK  206  A    between atoms: _496  and  _499
REMARK  207  A    between atoms: _499  and  _500
REMARK  208  A    between atoms: _503  and  _505
REMARK  209  A    between atoms: _505  and  _506
REMARK  210  A    between atoms: _508  and  _510
REMARK  211  A    between atoms: _510  and  _511
REMARK  212  A    between atoms: _510  and  _513
REMARK  213  A    between atoms: _513  and  _514
REMARK  214  A    between atoms: _514  and  _515
REMARK  215  A    between atoms: _515  and  _516
REMARK                            x       y       z     vdW  Elec       q    Type
REMARK                         _______ _______ _______ _____ _____    ______ ____
ROOT
ATOM      1  NE  ARG A   1       4.064  -7.842  23.250  0.00  0.00    -0.265 N 
ATOM      2  HE  ARG A   1       5.058  -7.860  23.554  0.00  0.00    +0.259 HD
ATOM      3  CZ  ARG A   1       3.707  -8.632  22.240  0.00  0.00    +0.342 C 
ATOM      4  NH2 ARG A   1       2.452  -8.639  21.810  0.00  0.00    -0.292 N 
ATOM      5 HH21 ARG A   1       1.744  -8.026  22.262  0.00  0.00    +0.255 HD
ATOM      6 HH22 ARG A   1       2.176  -9.257  21.021  0.00  0.00    +0.255 HD
ATOM      7  NH1 ARG A   1       4.598  -9.439  21.676  0.00  0.00    -0.292 N 
ATOM      8 HH11 ARG A   1       5.578  -9.455  22.023  0.00  0.00    +0.255 HD
ATOM      9 HH12 ARG A   1       4.316 -10.055  20.887  0.00  0.00    +0.255 HD
ENDROOT
BRANCH   1  10
ATOM     10  CD  ARG A   1       3.141  -6.944  23.964  0.00  0.00    +0.174 C 
BRANCH  10  11
ATOM     11  CG  ARG A   1       3.833  -6.156  25.055  0.00  0.00    +0.045 C 
BRANCH  11  12
ATOM     12  CB  ARG A   1       2.820  -5.375  25.855  0.00  0.00    +0.029 C 
BRANCH  12  13
ATOM     13  CA  ARG A   1       3.413  -4.405  26.880  0.00  0.00    +0.133 C 
BRANCH  13  14
ATOM     14  N   ARG A   1       4.028  -5.127  28.012  0.00  0.00    -0.239 NA
ATOM     15  H   ARG A   1       3.995  -6.166  28.038  0.00  0.00    +0.142 HD
ENDBRANCH  13  14
BRANCH  13  16
ATOM     16  C   ARG A   1       2.298  -3.509  27.414  0.00  0.00    +0.224 C 
ATOM     17  O   ARG A   1       1.487  -3.936  28.244  0.00  0.00    -0.287 OA
ENDBRANCH  13  16
ENDBRANCH  12  13
ENDBRANCH  11  12
ENDBRANCH  10  11
ENDBRANCH   1  10
TORSDOF 6
REMARK  Name = ../refined-set-2016/1b6k/1b6k_pocket.pdb
REMARK  215 active torsions:
REMARK  status: ('A' for Active; 'I' for Inactive)
REMARK    1  A    between atoms: _1  and  _3
REMARK    2  A    between atoms: _3  and  _4
REMARK    3  A    between atoms: _3  and  _6
REMARK    4  A    between atoms: _6  and  _7
REMARK    5  A    between atoms: _7  and  _8
REMARK    6  A    between atoms: _8  and  _9
REMARK    7  A    between atoms: _18  and  _20
REMARK    8  A    between atoms: _20  and  _21
REMARK    9  A    between atoms: _20  and  _23
REMARK   10  A    between atoms: _23  and  _24
REMARK   11  A    between atoms: _27  and  _29
REMARK   12  A    between atoms: _29  and  _30
REMARK   13  A    between atoms: _29  and  _32
REMARK   14  A    between atoms: _32  and  _33
REMARK   15  A    between atoms: _36  and  _38
REMARK   16  A    between atoms: _38  and  _39
REMARK   17  A    between atoms: _38  and  _41
REMARK   18  A    between atoms: _41  and  _42
REMARK   19  A    between atoms: _45  and  _47
REMARK   20  A    between atoms: _47  and  _48
REMARK   21  A    between atoms: _47  and  _50
REMARK   22  A    between atoms: _50  and  _51
REMARK   23  A    between atoms: _54  and  _56
REMARK   24  A    between atoms: _56  and  _57
REMARK   25  A    between atoms: _59  and  _61
REMARK   26  A    between atoms: _61  and  _62
REMARK   27  A    between atoms: _65  and  _67
REMARK   28  A    between atoms: _67  and  _68
REMARK   29  A    between atoms: _67  and  _70
REMARK   30  A    between atoms: _70  and  _71
REMARK   31  A    between atoms: _74  and  _76
REMARK   32  A    between atoms: _76  and  _77
REMARK   33  A    between atoms: _76  and  _79
REMARK   34  A    between atoms: _79  and  _80
REMARK   35  A    between atoms: _83  and  _85
REMARK   36  A    between atoms: _85  and  _86
REMARK   37  A    between atoms: _85  and  _88
REMARK   38  A    between atoms: _88  and  _89
REMARK   39  A    between atoms: _92  and  _94
REMARK   40  A    between atoms: _94  and  _95
REMARK   41  A    between atoms: _94  and  _97
REMARK   42  A    between atoms: _100  and  _102
REMARK   43  A    between atoms: _102  and  _103
REMARK   44  A    between atoms: _102  and  _105
REMARK   45  A    between atoms: _105  and  _106
REMARK   46  A    between atoms: _106  and  _107
REMARK   47  A    between atoms: _109  and  _111
REMARK   48  A    between atoms: _111  and  _112
REMARK   49  A    between atoms: _111  and  _114
REMARK   50  A    between atoms: _114  and  _115
REMARK   51  A    between atoms: _118  and  _120
REMARK   52  A    between atoms: _120  and  _121
REMARK   53  A    between atoms: _123  and  _125
REMARK   54  A    between atoms: _125  and  _126
REMARK   55  A    between atoms: _128  and  _130
REMARK   56  A    between atoms: _130  and  _131
REMARK   57  A    between atoms: _130  and  _133
REMARK   58  A    between atoms: _133  and  _134
REMARK   59  A    between atoms: _137  and  _139
REMARK   60  A    between atoms: _139  and  _140
REMARK   61  A    between atoms: _142  and  _144
REMARK   62  A    between atoms: _144  and  _145
REMARK   63  A    between atoms: _147  and  _149
REMARK   64  A    between atoms: _149  and  _150
REMARK   65  A    between atoms: _149  and  _152
REMARK   66  A    between atoms: _152  and  _153
REMARK   67  A    between atoms: _159  and  _161
REMARK   68  A    between atoms: _161  and  _162
REMARK   69  A    between atoms: _161  and  _164
REMARK   70  A    between atoms: _164  and  _165
REMARK   71  A    between atoms: _168  and  _170
REMARK   72  A    between atoms: _170  and  _171
REMARK   73  A    between atoms: _170  and  _173
REMARK   74  A    between atoms: _173  and  _174
REMARK   75  A    between atoms: _177  and  _179
REMARK   76  A    between atoms: _179  and  _180
REMARK   77  A    between atoms: _179  and  _182
REMARK   78  A    between atoms: _182  and  _183
REMARK   79  A    between atoms: _187  and  _188
REMARK   80  A    between atoms: _193  and  _195
REMARK   81  A    between atoms: _195  and  _196
REMARK   82  A    between atoms: _195  and  _198
REMARK   83  A    between atoms: _201  and  _203
REMARK   84  A    between atoms: _203  and  _204
REMARK   85  A    between atoms: _203  and  _206
REMARK   86  A    between atoms: _206  and  _207
REMARK   87  A    between atoms: _212  and  _214
REMARK   88  A    between atoms: _214  and  _215
REMARK   89  A    between atoms: _214  and  _217
REMARK   90  A    between atoms: _217  and  _218
REMARK   91  A    between atoms: _221  and  _223
REMARK   92  A    between atoms: _223  and  _224
REMARK   93  A    between atoms: _223  and  _226
REMARK   94  A    between atoms: _226  and  _227
REMARK   95  A    between atoms: _230  and  _232
REMARK   96  A    between atoms: _232  and  _233
REMARK   97  A    between atoms: _235  and  _237
REMARK   98  A    between atoms: _237  and  _238
REMARK   99  A    between atoms: _237  and  _240
REMARK  100  A    between atoms: _240  and  _241
REMARK  101  A    between atoms: _241  and  _242
REMARK  102  A    between atoms: _242  and  _243
REMARK  103  A    between atoms: _252  and  _254
REMARK  104  A    between atoms: _254  and  _255
REMARK  105  A    between atoms: _254  and  _257
REMARK  106  A    between atoms: _257  and  _258
REMARK  107  A    between atoms: _258  and  _259
REMARK  108  A    between atoms: _259  and  _260
REMARK  109  A    between atoms: _269  and  _271
REMARK  110  A    between atoms: _271  and  _272
REMARK  111  A    between atoms: _271  and  _274
REMARK  112  A    between atoms: _274  and  _275
REMARK  113  A    between atoms: _278  and  _280
REMARK  114  A    between atoms: _280  and  _281
REMARK  115  A    between atoms: _280  and  _283
REMARK  116  A    between atoms: _283  and  _284
REMARK  117  A    between atoms: _287  and  _289
REMARK  118  A    between atoms: _289  and  _290
REMARK  119  A    between atoms: _289  and  _292
REMARK  120  A    between atoms: _292  and  _293
REMARK  121  A    between atoms: _296  and  _298
REMARK  122  A    between atoms: _298  and  _299
REMARK  123  A    between atoms: _298  and  _301
REMARK  124  A    between atoms: _301  and  _302
REMARK  125  A    between atoms: _305  and  _307
REMARK  126  A    between atoms: _307  and  _308
REMARK  127  A    between atoms: _307  and  _310
REMARK  128  A    between atoms: _310  and  _311
REMARK  129  A    between atoms: _314  and  _316
REMARK  130  A    between atoms: _316  and  _317
REMARK  131  A    between atoms: _319  and  _321
REMARK  132  A    between atoms: _321  and  _322
REMARK  133  A    between atoms: _325  and  _327
REMARK  134  A    between atoms: _327  and  _328
REMARK  135  A    between atoms: _327  and  _330
REMARK  136  A    between atoms: _330  and  _331
REMARK  137  A    between atoms: _334  and  _336
REMARK  138  A    between atoms: _336  and  _337
REMARK  139  A    between atoms: _336  and  _339
REMARK  140  A    between atoms: _339  and  _340
REMARK  141  A    between atoms: _343  and  _345
REMARK  142  A    between atoms: _345  and  _346
REMARK  143  A    between atoms: _345  and  _348
REMARK  144  A    between atoms: _348  and  _349
REMARK  145  A    between atoms: _352  and  _354
REMARK  146  A    between atoms: _354  and  _355
REMARK  147  A    between atoms: _354  and  _357
REMARK  148  A    between atoms: _360  and  _362
REMARK  149  A    between atoms: _362  and  _363
REMARK  150  A    between atoms: _362  and  _365
REMARK  151  A    between atoms: _365  and  _366
REMARK  152  A    between atoms: _366  and  _367
REMARK  153  A    between atoms: _367  and  _368
REMARK  154  A    between atoms: _368  and  _369
REMARK  155  A    between atoms: _373  and  _375
REMARK  156  A    between atoms: _375  and  _376
REMARK  157  A    between atoms: _375  and  _378
REMARK  158  A    between atoms: _378  and  _379
REMARK  159  A    between atoms: _379  and  _380
REMARK  160  A    between atoms: _382  and  _384
REMARK  161  A    between atoms: _384  and  _385
REMARK  162  A    between atoms: _384  and  _387
REMARK  163  A    between atoms: _387  and  _388
REMARK  164  A    between atoms: _391  and  _393
REMARK  165  A    between atoms: _393  and  _394
REMARK  166  A    between atoms: _396  and  _398
REMARK  167  A    between atoms: _398  and  _399
REMARK  168  A    between atoms: _401  and  _403
REMARK  169  A    between atoms: _403  and  _404
REMARK  170  A    between atoms: _403  and  _406
REMARK  171  A    between atoms: _406  and  _407
REMARK  172  A    between atoms: _410  and  _412
REMARK  173  A    between atoms: _412  and  _413
REMARK  174  A    between atoms: _415  and  _417
REMARK  175  A    between atoms: _417  and  _418
REMARK  176  A    between atoms: _420  and  _422
REMARK  177  A    between atoms: _422  and  _423
REMARK  178  A    between atoms: _422  and  _425
REMARK  179  A    between atoms: _425  and  _426
REMARK  180  A    between atoms: _432  and  _434
REMARK  181  A    between atoms: _434  and  _435
REMARK  182  A    between atoms: _434  and  _437
REMARK  183  A    between atoms: _437  and  _438
REMARK  184  A    between atoms: _441  and  _443
REMARK  185  A    between atoms: _443  and  _444
REMARK  186  A    between atoms: _443  and  _446
REMARK  187  A    between atoms: _446  and  _447
REMARK  188  A    between atoms: _450  and  _452
REMARK  189  A    between atoms: _452  and  _453
REMARK  190  A    between atoms: _452  and  _455
REMARK  191  A    between atoms: _455  and  _456
REMARK  192  A    between atoms: _460  and  _461
REMARK  193  A    between atoms: _466  and  _468
REMARK  194  A    between atoms: _468  and  _469
REMARK  195  A    between atoms: _468  and  _471
REMARK  196  A    between atoms: _474  and  _476
REMARK  197  A    between atoms: _476  and  _477
REMARK  198  A    between atoms: _476  and  _479
REMARK  199  A    between atoms: _479  and  _480
REMARK  200  A    between atoms: _485  and  _487
REMARK  201  A    between atoms: _487  and  _488
REMARK  202  A    between atoms: _487  and  _490
REMARK  203  A    between atoms: _490  and  _491
REMARK  204  A    between atoms: _494  and  _496
REMARK  205  A    between atoms: _496  and  _497
REMARK  206  A    between atoms: _496  and  _499
REMARK  207  A    between atoms: _499  and  _500
REMARK  208  A    between atoms: _503  and  _505
REMARK  209  A    between atoms: _505  and  _506
REMARK  210  A    between atoms: _508  and  _510
REMARK  211  A    between atoms: _510  and  _511
REMARK  212  A    between atoms: _510  and  _513
REMARK  213  A    between atoms: _513  and  _514
REMARK  214  A    between atoms: _514  and  _515
REMARK  215  A    between atoms: _515  and  _516
REMARK                            x       y       z     vdW  Elec       q    Type
REMARK                         _______ _______ _______ _____ _____    ______ ____
ROOT
ATOM      1  C   GLY A   5       4.770   4.259  15.964  0.00  0.00    +0.243 C 
ATOM      2  N   ALA A   6       3.474   4.394  16.204  0.00  0.00    -0.297 N 
ATOM      3  H   ALA A   6       3.160   4.579  17.178  0.00  0.00    +0.150 HD
ATOM      4  O   GLY A   5       5.218   4.019  14.850  0.00  0.00    -0.273 OA
ENDROOT
BRANCH   2   5
ATOM      5  CA  ALA A   6       2.466   4.292  15.143  0.00  0.00    +0.149 C 
ATOM      6  CB  ALA A   6       1.408   3.282  15.540  0.00  0.00    +0.031 C 
BRANCH   5   7
ATOM      7  C   ALA A   6       1.800   5.633  14.878  0.00  0.00    +0.241 C 
ATOM      8  O   ALA A   6       1.271   6.252  15.799  0.00  0.00    -0.273 OA
ATOM      9  N   ASP A   7       1.796   6.068  13.621  0.00  0.00    -0.297 N 
ATOM     10  H   ASP A   7       2.260   5.506  12.879  0.00  0.00    +0.150 HD
BRANCH   9  11
ATOM     11  CA  ASP A   7       1.140   7.339  13.272  0.00  0.00    +0.160 C 
BRANCH  11  12
ATOM     12  C   ASP A   7      -0.357   7.146  13.373  0.00  0.00    +0.241 C 
ATOM     13  O   ASP A   7      -1.080   8.026  13.831  0.00  0.00    -0.273 OA
ATOM     14  N   ASP A   8      -0.804   5.965  12.959  0.00  0.00    -0.297 N 
ATOM     15  H   ASP A   8      -0.117   5.250  12.644  0.00  0.00    +0.150 HD
BRANCH  14  16
ATOM     16  CA  ASP A   8      -2.226   5.637  12.932  0.00  0.00    +0.160 C 
BRANCH  16  17
ATOM     17  C   ASP A   8      -2.668   4.522  13.854  0.00  0.00    +0.241 C 
ATOM     18  O   ASP A   8      -1.850   3.815  14.447  0.00  0.00    -0.273 OA
ATOM     19  N   THR A   9      -3.989   4.378  13.936  0.00  0.00    -0.295 N 
ATOM     20  H   THR A   9      -4.584   5.029  13.385  0.00  0.00    +0.150 HD
BRANCH  19  21
ATOM     21  CA  THR A   9      -4.659   3.361  14.753  0.00  0.00    +0.176 C 
BRANCH  21  22
ATOM     22  C   THR A   9      -5.141   2.227  13.838  0.00  0.00    +0.243 C 
ATOM     23  N   VAL A  10      -4.691   1.008  14.125  0.00  0.00    -0.298 N 
ATOM     24  H   VAL A  10      -4.053   0.879  14.936  0.00  0.00    +0.150 HD
ATOM     25  O   THR A   9      -5.860   2.463  12.861  0.00  0.00    -0.273 OA
BRANCH  23  26
ATOM     26  CA  VAL A  10      -5.075  -0.160  13.321  0.00  0.00    +0.137 C 
BRANCH  26  27
ATOM     27  CB  VAL A  10      -3.860  -0.795  12.595  0.00  0.00    +0.026 C 
ATOM     28  CG2 VAL A  10      -2.956   0.272  12.017  0.00  0.00    +0.002 C 
ATOM     29  CG1 VAL A  10      -4.341  -1.733  11.497  0.00  0.00    +0.002 C 
ENDBRANCH  26  27
BRANCH  26  30
ATOM     30  C   VAL A  10      -5.731  -1.206  14.220  0.00  0.00    +0.227 C 
ATOM     31  O   VAL A  10      -5.121  -1.704  15.165  0.00  0.00    -0.286 OA
ENDBRANCH  26  30
ENDBRANCH  23  26
ENDBRANCH  21  22
BRANCH  21  32
ATOM     32  CB  THR A   9      -5.846   3.994  15.509  0.00  0.00    +0.137 C 
ATOM     33  CG2 THR A   9      -6.659   2.946  16.250  0.00  0.00    +0.034 C 
BRANCH  32  34
ATOM     34  OG1 THR A   9      -5.336   4.939  16.460  0.00  0.00    -0.382 OA
ATOM     35  HG1 THR A   9      -4.827   5.642  15.984  0.00  0.00    +0.210 HD
ENDBRANCH  32  34
ENDBRANCH  21  32
ENDBRANCH  19  21
ENDBRANCH  16  17
BRANCH  16  36
ATOM     36  CB  ASP A   8      -2.631   5.288  11.503  0.00  0.00    +0.143 C 
BRANCH  36  37
ATOM     37  CG  ASP A   8      -2.234   6.359  10.514  0.00  0.00    +0.367 C 
ATOM     38  OD2 ASP A   8      -2.674   7.517  10.687  0.00  0.00    -0.246 OA
ATOM     39  OD1 ASP A   8      -1.470   6.041   9.578  0.00  0.00    -0.246 OA
ENDBRANCH  36  37
ENDBRANCH  16  36
ENDBRANCH  14  16
ENDBRANCH  11  12
BRANCH  11  40
ATOM     40  CB  ASP A   7       1.442   7.747  11.831  0.00  0.00    +0.143 C 
BRANCH  40  41
ATOM     41  CG  ASP A   7       2.898   8.038  11.591  0.00  0.00    +0.367 C 
ATOM     42  OD2 ASP A   7       3.661   8.258  12.557  0.00  0.00    -0.246 OA
ATOM     43  OD1 ASP A   7       3.278   8.059  10.406  0.00  0.00    -0.246 OA
ENDBRANCH  40  41
ENDBRANCH  11  40
ENDBRANCH   9  11
ENDBRANCH   5   7
ENDBRANCH   2   5
BRANCH   1  44
ATOM     44  CA  GLY A   5       5.696   4.391  17.157  0.00  0.00    +0.176 C 
BRANCH  44  46
ATOM     45  C   THR A   4       4.716   5.720  18.921  0.00  0.00    +0.243 C 
ATOM     46  N   GLY A   5       4.968   4.522  18.406  0.00  0.00    -0.295 N 
ATOM     47  H   GLY A   5       4.640   3.669  18.903  0.00  0.00    +0.150 HD
ATOM     48  O   THR A   4       5.104   6.759  18.400  0.00  0.00    -0.273 OA
BRANCH  45  49
ATOM     49  CA  THR A   4       3.932   5.750  20.227  0.00  0.00    +0.176 C 
BRANCH  49  51
ATOM     50  C   ASP A   3       2.364   3.896  19.938  0.00  0.00    +0.241 C 
ATOM     51  N   THR A   4       3.400   4.427  20.577  0.00  0.00    -0.295 N 
ATOM     52  H   THR A   4       3.847   3.890  21.347  0.00  0.00    +0.150 HD
ATOM     53  O   ASP A   3       1.806   4.438  18.985  0.00  0.00    -0.273 OA
BRANCH  50  54
ATOM     54  CA  ASP A   3       1.933   2.514  20.401  0.00  0.00    +0.160 C 
BRANCH  54  57
ATOM     55  C   LEU A   2       0.761   2.097  22.504  0.00  0.00    +0.241 C 
ATOM     56  O   LEU A   2       1.793   1.802  23.105  0.00  0.00    -0.273 OA
ATOM     57  N   ASP A   3       0.742   2.510  21.246  0.00  0.00    -0.297 N 
ATOM     58  H   ASP A   3      -0.157   2.845  20.844  0.00  0.00    +0.150 HD
BRANCH  55  59
ATOM     59  CA  LEU A   2      -0.593   2.049  23.189  0.00  0.00    +0.149 C 
BRANCH  59  61
ATOM     60  C   LEU A   1      -1.343  -0.105  22.284  0.00  0.00    +0.238 C 
ATOM     61  N   LEU A   2      -0.884   0.608  23.313  0.00  0.00    -0.297 N 
ATOM     62  H   LEU A   2      -0.727   0.136  24.226  0.00  0.00    +0.150 HD
ATOM     63  O   LEU A   1      -1.603   0.388  21.188  0.00  0.00    -0.274 OA
BRANCH  60  64
ATOM     64  CA  LEU A   1      -1.563  -1.601  22.526  0.00  0.00    +0.145 C 
BRANCH  64  65
ATOM     65  N   LEU A   1      -2.923  -2.013  22.153  0.00  0.00    -0.238 NA
ATOM     66  H   LEU A   1      -3.118  -2.222  21.153  0.00  0.00    +0.142 HD
ENDBRANCH  64  65
BRANCH  64  67
ATOM     67  CB  LEU A   1      -0.559  -2.391  21.685  0.00  0.00    +0.026 C 
BRANCH  67  68
ATOM     68  CG  LEU A   1       0.944  -2.244  21.922  0.00  0.00    +0.002 C 
ATOM     69  CD2 LEU A   1       1.342  -2.913  23.239  0.00  0.00    +0.000 C 
ATOM     70  CD1 LEU A   1       1.680  -2.883  20.758  0.00  0.00    +0.000 C 
ENDBRANCH  67  68
ENDBRANCH  64  67
ENDBRANCH  60  64
ENDBRANCH  59  61
BRANCH  59  71
ATOM     71  CB  LEU A   2      -0.545   2.714  24.566  0.00  0.00    +0.029 C 
BRANCH  71  72
ATOM     72  CG  LEU A   2      -1.814   2.535  25.398  0.00  0.00    +0.002 C 
ATOM     73  CD2 LEU A   2      -1.679   3.361  26.665  0.00  0.00    +0.000 C 
ATOM     74  CD1 LEU A   2      -3.042   2.966  24.605  0.00  0.00    +0.000 C 
ENDBRANCH  71  72
ENDBRANCH  59  71
ENDBRANCH  55  59
ENDBRANCH  54  57
BRANCH  54  75
ATOM     75  CB  ASP A   3       1.612   1.626  19.191  0.00  0.00    +0.143 C 
BRANCH  75  76
ATOM     76  CG  ASP A   3       2.830   1.246  18.378  0.00  0.00    +0.367 C 
ATOM     77  OD2 ASP A   3       3.870   1.924  18.442  0.00  0.00    -0.246 OA
ATOM     78  OD1 ASP A   3       2.731   0.247  17.644  0.00  0.00    -0.246 OA
ENDBRANCH  75  76
ENDBRANCH  54  75
ENDBRANCH  50  54
ENDBRANCH  49  51
BRANCH  49  79
ATOM     79  CB  THR A   4       4.837   6.289  21.336  0.00  0.00    +0.137 C 
ATOM     80  CG2 THR A   4       4.053   6.400  22.642  0.00  0.00    +0.034 C 
BRANCH  79  81
ATOM     81  OG1 THR A   4       5.956   5.410  21.514  0.00  0.00    -0.382 OA
ATOM     82  HG1 THR A   4       6.468   5.354  20.669  0.00  0.00    +0.210 HD
ENDBRANCH  79  81
ENDBRANCH  49  79
ENDBRANCH  45  49
ENDBRANCH  44  46
ENDBRANCH   1  44
TORSDOF 35
REMARK  Name = ../refined-set-2016/1b6k/1b6k_pocket.pdb
REMARK  215 active torsions:
REMARK  status: ('A' for Active; 'I' for Inactive)
REMARK    1  A    between atoms: _1  and  _3
REMARK    2  A    between atoms: _3  and  _4
REMARK    3  A    between atoms: _3  and  _6
REMARK    4  A    between atoms: _6  and  _7
REMARK    5  A    between atoms: _7  and  _8
REMARK    6  A    between atoms: _8  and  _9
REMARK    7  A    between atoms: _18  and  _20
REMARK    8  A    between atoms: _20  and  _21
REMARK    9  A    between atoms: _20  and  _23
REMARK   10  A    between atoms: _23  and  _24
REMARK   11  A    between atoms: _27  and  _29
REMARK   12  A    between atoms: _29  and  _30
REMARK   13  A    between atoms: _29  and  _32
REMARK   14  A    between atoms: _32  and  _33
REMARK   15  A    between atoms: _36  and  _38
REMARK   16  A    between atoms: _38  and  _39
REMARK   17  A    between atoms: _38  and  _41
REMARK   18  A    between atoms: _41  and  _42
REMARK   19  A    between atoms: _45  and  _47
REMARK   20  A    between atoms: _47  and  _48
REMARK   21  A    between atoms: _47  and  _50
REMARK   22  A    between atoms: _50  and  _51
REMARK   23  A    between atoms: _54  and  _56
REMARK   24  A    between atoms: _56  and  _57
REMARK   25  A    between atoms: _59  and  _61
REMARK   26  A    between atoms: _61  and  _62
REMARK   27  A    between atoms: _65  and  _67
REMARK   28  A    between atoms: _67  and  _68
REMARK   29  A    between atoms: _67  and  _70
REMARK   30  A    between atoms: _70  and  _71
REMARK   31  A    between atoms: _74  and  _76
REMARK   32  A    between atoms: _76  and  _77
REMARK   33  A    between atoms: _76  and  _79
REMARK   34  A    between atoms: _79  and  _80
REMARK   35  A    between atoms: _83  and  _85
REMARK   36  A    between atoms: _85  and  _86
REMARK   37  A    between atoms: _85  and  _88
REMARK   38  A    between atoms: _88  and  _89
REMARK   39  A    between atoms: _92  and  _94
REMARK   40  A    between atoms: _94  and  _95
REMARK   41  A    between atoms: _94  and  _97
REMARK   42  A    between atoms: _100  and  _102
REMARK   43  A    between atoms: _102  and  _103
REMARK   44  A    between atoms: _102  and  _105
REMARK   45  A    between atoms: _105  and  _106
REMARK   46  A    between atoms: _106  and  _107
REMARK   47  A    between atoms: _109  and  _111
REMARK   48  A    between atoms: _111  and  _112
REMARK   49  A    between atoms: _111  and  _114
REMARK   50  A    between atoms: _114  and  _115
REMARK   51  A    between atoms: _118  and  _120
REMARK   52  A    between atoms: _120  and  _121
REMARK   53  A    between atoms: _123  and  _125
REMARK   54  A    between atoms: _125  and  _126
REMARK   55  A    between atoms: _128  and  _130
REMARK   56  A    between atoms: _130  and  _131
REMARK   57  A    between atoms: _130  and  _133
REMARK   58  A    between atoms: _133  and  _134
REMARK   59  A    between atoms: _137  and  _139
REMARK   60  A    between atoms: _139  and  _140
REMARK   61  A    between atoms: _142  and  _144
REMARK   62  A    between atoms: _144  and  _145
REMARK   63  A    between atoms: _147  and  _149
REMARK   64  A    between atoms: _149  and  _150
REMARK   65  A    between atoms: _149  and  _152
REMARK   66  A    between atoms: _152  and  _153
REMARK   67  A    between atoms: _159  and  _161
REMARK   68  A    between atoms: _161  and  _162
REMARK   69  A    between atoms: _161  and  _164
REMARK   70  A    between atoms: _164  and  _165
REMARK   71  A    between atoms: _168  and  _170
REMARK   72  A    between atoms: _170  and  _171
REMARK   73  A    between atoms: _170  and  _173
REMARK   74  A    between atoms: _173  and  _174
REMARK   75  A    between atoms: _177  and  _179
REMARK   76  A    between atoms: _179  and  _180
REMARK   77  A    between atoms: _179  and  _182
REMARK   78  A    between atoms: _182  and  _183
REMARK   79  A    between atoms: _187  and  _188
REMARK   80  A    between atoms: _193  and  _195
REMARK   81  A    between atoms: _195  and  _196
REMARK   82  A    between atoms: _195  and  _198
REMARK   83  A    between atoms: _201  and  _203
REMARK   84  A    between atoms: _203  and  _204
REMARK   85  A    between atoms: _203  and  _206
REMARK   86  A    between atoms: _206  and  _207
REMARK   87  A    between atoms: _212  and  _214
REMARK   88  A    between atoms: _214  and  _215
REMARK   89  A    between atoms: _214  and  _217
REMARK   90  A    between atoms: _217  and  _218
REMARK   91  A    between atoms: _221  and  _223
REMARK   92  A    between atoms: _223  and  _224
REMARK   93  A    between atoms: _223  and  _226
REMARK   94  A    between atoms: _226  and  _227
REMARK   95  A    between atoms: _230  and  _232
REMARK   96  A    between atoms: _232  and  _233
REMARK   97  A    between atoms: _235  and  _237
REMARK   98  A    between atoms: _237  and  _238
REMARK   99  A    between atoms: _237  and  _240
REMARK  100  A    between atoms: _240  and  _241
REMARK  101  A    between atoms: _241  and  _242
REMARK  102  A    between atoms: _242  and  _243
REMARK  103  A    between atoms: _252  and  _254
REMARK  104  A    between atoms: _254  and  _255
REMARK  105  A    between atoms: _254  and  _257
REMARK  106  A    between atoms: _257  and  _258
REMARK  107  A    between atoms: _258  and  _259
REMARK  108  A    between atoms: _259  and  _260
REMARK  109  A    between atoms: _269  and  _271
REMARK  110  A    between atoms: _271  and  _272
REMARK  111  A    between atoms: _271  and  _274
REMARK  112  A    between atoms: _274  and  _275
REMARK  113  A    between atoms: _278  and  _280
REMARK  114  A    between atoms: _280  and  _281
REMARK  115  A    between atoms: _280  and  _283
REMARK  116  A    between atoms: _283  and  _284
REMARK  117  A    between atoms: _287  and  _289
REMARK  118  A    between atoms: _289  and  _290
REMARK  119  A    between atoms: _289  and  _292
REMARK  120  A    between atoms: _292  and  _293
REMARK  121  A    between atoms: _296  and  _298
REMARK  122  A    between atoms: _298  and  _299
REMARK  123  A    between atoms: _298  and  _301
REMARK  124  A    between atoms: _301  and  _302
REMARK  125  A    between atoms: _305  and  _307
REMARK  126  A    between atoms: _307  and  _308
REMARK  127  A    between atoms: _307  and  _310
REMARK  128  A    between atoms: _310  and  _311
REMARK  129  A    between atoms: _314  and  _316
REMARK  130  A    between atoms: _316  and  _317
REMARK  131  A    between atoms: _319  and  _321
REMARK  132  A    between atoms: _321  and  _322
REMARK  133  A    between atoms: _325  and  _327
REMARK  134  A    between atoms: _327  and  _328
REMARK  135  A    between atoms: _327  and  _330
REMARK  136  A    between atoms: _330  and  _331
REMARK  137  A    between atoms: _334  and  _336
REMARK  138  A    between atoms: _336  and  _337
REMARK  139  A    between atoms: _336  and  _339
REMARK  140  A    between atoms: _339  and  _340
REMARK  141  A    between atoms: _343  and  _345
REMARK  142  A    between atoms: _345  and  _346
REMARK  143  A    between atoms: _345  and  _348
REMARK  144  A    between atoms: _348  and  _349
REMARK  145  A    between atoms: _352  and  _354
REMARK  146  A    between atoms: _354  and  _355
REMARK  147  A    between atoms: _354  and  _357
REMARK  148  A    between atoms: _360  and  _362
REMARK  149  A    between atoms: _362  and  _363
REMARK  150  A    between atoms: _362  and  _365
REMARK  151  A    between atoms: _365  and  _366
REMARK  152  A    between atoms: _366  and  _367
REMARK  153  A    between atoms: _367  and  _368
REMARK  154  A    between atoms: _368  and  _369
REMARK  155  A    between atoms: _373  and  _375
REMARK  156  A    between atoms: _375  and  _376
REMARK  157  A    between atoms: _375  and  _378
REMARK  158  A    between atoms: _378  and  _379
REMARK  159  A    between atoms: _379  and  _380
REMARK  160  A    between atoms: _382  and  _384
REMARK  161  A    between atoms: _384  and  _385
REMARK  162  A    between atoms: _384  and  _387
REMARK  163  A    between atoms: _387  and  _388
REMARK  164  A    between atoms: _391  and  _393
REMARK  165  A    between atoms: _393  and  _394
REMARK  166  A    between atoms: _396  and  _398
REMARK  167  A    between atoms: _398  and  _399
REMARK  168  A    between atoms: _401  and  _403
REMARK  169  A    between atoms: _403  and  _404
REMARK  170  A    between atoms: _403  and  _406
REMARK  171  A    between atoms: _406  and  _407
REMARK  172  A    between atoms: _410  and  _412
REMARK  173  A    between atoms: _412  and  _413
REMARK  174  A    between atoms: _415  and  _417
REMARK  175  A    between atoms: _417  and  _418
REMARK  176  A    between atoms: _420  and  _422
REMARK  177  A    between atoms: _422  and  _423
REMARK  178  A    between atoms: _422  and  _425
REMARK  179  A    between atoms: _425  and  _426
REMARK  180  A    between atoms: _432  and  _434
REMARK  181  A    between atoms: _434  and  _435
REMARK  182  A    between atoms: _434  and  _437
REMARK  183  A    between atoms: _437  and  _438
REMARK  184  A    between atoms: _441  and  _443
REMARK  185  A    between atoms: _443  and  _444
REMARK  186  A    between atoms: _443  and  _446
REMARK  187  A    between atoms: _446  and  _447
REMARK  188  A    between atoms: _450  and  _452
REMARK  189  A    between atoms: _452  and  _453
REMARK  190  A    between atoms: _452  and  _455
REMARK  191  A    between atoms: _455  and  _456
REMARK  192  A    between atoms: _460  and  _461
REMARK  193  A    between atoms: _466  and  _468
REMARK  194  A    between atoms: _468  and  _469
REMARK  195  A    between atoms: _468  and  _471
REMARK  196  A    between atoms: _474  and  _476
REMARK  197  A    between atoms: _476  and  _477
REMARK  198  A    between atoms: _476  and  _479
REMARK  199  A    between atoms: _479  and  _480
REMARK  200  A    between atoms: _485  and  _487
REMARK  201  A    between atoms: _487  and  _488
REMARK  202  A    between atoms: _487  and  _490
REMARK  203  A    between atoms: _490  and  _491
REMARK  204  A    between atoms: _494  and  _496
REMARK  205  A    between atoms: _496  and  _497
REMARK  206  A    between atoms: _496  and  _499
REMARK  207  A    between atoms: _499  and  _500
REMARK  208  A    between atoms: _503  and  _505
REMARK  209  A    between atoms: _505  and  _506
REMARK  210  A    between atoms: _508  and  _510
REMARK  211  A    between atoms: _510  and  _511
REMARK  212  A    between atoms: _510  and  _513
REMARK  213  A    between atoms: _513  and  _514
REMARK  214  A    between atoms: _514  and  _515
REMARK  215  A    between atoms: _515  and  _516
REMARK                            x       y       z     vdW  Elec       q    Type
REMARK                         _______ _______ _______ _____ _____    ______ ____
ROOT
ATOM      1  CA  ILE A   5       8.350  -3.461   8.850  0.00  0.00    +0.149 C 
ENDROOT
BRANCH   1   3
ATOM      2  C   GLY A   4       6.562  -2.039   8.079  0.00  0.00    +0.243 C 
ATOM      3  N   ILE A   5       7.254  -2.522   9.105  0.00  0.00    -0.297 N 
ATOM      4  H   ILE A   5       7.021  -2.237  10.078  0.00  0.00    +0.150 HD
ATOM      5  O   GLY A   4       6.839  -2.314   6.908  0.00  0.00    -0.273 OA
BRANCH   2   6
ATOM      6  CA  GLY A   4       5.418  -1.097   8.389  0.00  0.00    +0.176 C 
BRANCH   6   8
ATOM      7  C   GLY A   3       4.184  -0.191   6.515  0.00  0.00    +0.243 C 
ATOM      8  N   GLY A   4       4.457  -1.220   7.309  0.00  0.00    -0.295 N 
ATOM      9  H   GLY A   4       3.974  -2.128   7.154  0.00  0.00    +0.150 HD
ATOM     10  O   GLY A   3       4.685   0.920   6.659  0.00  0.00    -0.273 OA
BRANCH   7  11
ATOM     11  CA  GLY A   3       3.191  -0.460   5.410  0.00  0.00    +0.176 C 
BRANCH  11  13
ATOM     12  C   ILE A   2       0.885  -0.005   4.943  0.00  0.00    +0.241 C 
ATOM     13  N   GLY A   3       2.064   0.448   5.346  0.00  0.00    -0.295 N 
ATOM     14  H   GLY A   3       2.179   1.446   5.614  0.00  0.00    +0.150 HD
ATOM     15  O   ILE A   2       0.697  -1.179   4.622  0.00  0.00    -0.273 OA
BRANCH  12  16
ATOM     16  CA  ILE A   2      -0.254   1.001   4.894  0.00  0.00    +0.148 C 
BRANCH  16  18
ATOM     17  C   MET A   1      -1.700   1.207   2.931  0.00  0.00    +0.238 C 
ATOM     18  N   ILE A   2      -1.291   0.494   3.977  0.00  0.00    -0.297 N 
ATOM     19  H   ILE A   2      -1.712  -0.441   4.152  0.00  0.00    +0.150 HD
ATOM     20  O   MET A   1      -1.284   2.337   2.684  0.00  0.00    -0.274 OA
BRANCH  17  21
ATOM     21  CA  MET A   1      -2.744   0.568   2.036  0.00  0.00    +0.146 C 
BRANCH  21  22
ATOM     22  N   MET A   1      -3.915   1.444   1.907  0.00  0.00    -0.238 NA
ATOM     23  H   MET A   1      -3.768   2.444   1.663  0.00  0.00    +0.142 HD
ENDBRANCH  21  22
BRANCH  21  24
ATOM     24  CB  MET A   1      -2.110   0.322   0.670  0.00  0.00    +0.038 C 
BRANCH  24  25
ATOM     25  CG  MET A   1      -2.521  -0.965  -0.005  0.00  0.00    +0.060 C 
BRANCH  25  26
ATOM     26  SD  MET A   1      -1.606  -1.178  -1.544  0.00  0.00    -0.139 S 
ATOM     27  CE  MET A   1       0.036  -1.493  -0.930  0.00  0.00    +0.069 C 
ENDBRANCH  25  26
ENDBRANCH  24  25
ENDBRANCH  21  24
ENDBRANCH  17  21
ENDBRANCH  16  18
BRANCH  16  28
ATOM     28  CB  ILE A   2      -0.785   1.245   6.335  0.00  0.00    +0.027 C 
ATOM     29  CG2 ILE A   2      -1.849   2.328   6.334  0.00  0.00    +0.002 C 
BRANCH  28  30
ATOM     30  CG1 ILE A   2      -1.346  -0.045   6.934  0.00  0.00    +0.002 C 
ATOM     31  CD1 ILE A   2      -1.774   0.095   8.380  0.00  0.00    +0.000 C 
ENDBRANCH  28  30
ENDBRANCH  16  28
ENDBRANCH  12  16
ENDBRANCH  11  13
ENDBRANCH   7  11
ENDBRANCH   6   8
ENDBRANCH   2   6
ENDBRANCH   1   3
BRANCH   1  32
ATOM     32  C   ILE A   5       7.675  -4.788   8.501  0.00  0.00    +0.241 C 
ATOM     33  O   ILE A   5       6.645  -5.144   9.081  0.00  0.00    -0.273 OA
ATOM     34  N   GLY A   6       8.196  -5.459   7.484  0.00  0.00    -0.295 N 
ATOM     35  H   GLY A   6       9.022  -5.078   6.980  0.00  0.00    +0.150 HD
BRANCH  34  36
ATOM     36  CA  GLY A   6       7.618  -6.723   7.073  0.00  0.00    +0.176 C 
BRANCH  36  37
ATOM     37  C   GLY A   6       6.821  -6.565   5.798  0.00  0.00    +0.243 C 
ATOM     38  N   GLY A   7       6.364  -5.345   5.527  0.00  0.00    -0.295 N 
ATOM     39  H   GLY A   7       6.548  -4.561   6.185  0.00  0.00    +0.150 HD
ATOM     40  O   GLY A   6       6.589  -7.537   5.087  0.00  0.00    -0.273 OA
BRANCH  38  41
ATOM     41  CA  GLY A   7       5.609  -5.112   4.311  0.00  0.00    +0.176 C 
BRANCH  41  42
ATOM     42  C   GLY A   7       4.343  -4.289   4.420  0.00  0.00    +0.243 C 
ATOM     43  O   GLY A   7       4.025  -3.737   5.473  0.00  0.00    -0.273 OA
ATOM     44  N   PHE A   8       3.630  -4.219   3.297  0.00  0.00    -0.297 N 
ATOM     45  H   PHE A   8       3.987  -4.719   2.458  0.00  0.00    +0.150 HD
BRANCH  44  46
ATOM     46  CA  PHE A   8       2.368  -3.476   3.174  0.00  0.00    +0.153 C 
BRANCH  46  47
ATOM     47  C   PHE A   8       1.149  -4.375   3.295  0.00  0.00    +0.241 C 
ATOM     48  N   ILE A   9       0.091  -3.835   3.895  0.00  0.00    -0.298 N 
ATOM     49  H   ILE A   9       0.165  -2.865   4.264  0.00  0.00    +0.150 HD
ATOM     50  O   PHE A   8       1.169  -5.527   2.859  0.00  0.00    -0.273 OA
BRANCH  48  51
ATOM     51  CA  ILE A   9      -1.175  -4.558   4.055  0.00  0.00    +0.137 C 
BRANCH  51  52
ATOM     52  CB  ILE A   9      -1.429  -5.008   5.527  0.00  0.00    +0.026 C 
ATOM     53  CG2 ILE A   9      -0.316  -5.931   5.996  0.00  0.00    +0.002 C 
BRANCH  52  54
ATOM     54  CG1 ILE A   9      -1.541  -3.804   6.462  0.00  0.00    +0.002 C 
ATOM     55  CD1 ILE A   9      -1.998  -4.165   7.854  0.00  0.00    +0.000 C 
ENDBRANCH  52  54
ENDBRANCH  51  52
BRANCH  51  56
ATOM     56  C   ILE A   9      -2.313  -3.648   3.601  0.00  0.00    +0.227 C 
ATOM     57  O   ILE A   9      -2.173  -2.421   3.579  0.00  0.00    -0.286 OA
ENDBRANCH  51  56
ENDBRANCH  48  51
ENDBRANCH  46  47
BRANCH  46  58
ATOM     58  CB  PHE A   8       2.306  -2.756   1.824  0.00  0.00    +0.055 C 
BRANCH  58  59
ATOM     59  CG  PHE A   8       3.118  -1.504   1.771  0.00  0.00    -0.020 A 
ATOM     60  CD2 PHE A   8       4.502  -1.550   1.894  0.00  0.00    -0.004 A 
ATOM     61  CE2 PHE A   8       5.261  -0.381   1.876  0.00  0.00    -0.000 A 
ATOM     62  CZ  PHE A   8       4.630   0.849   1.737  0.00  0.00    -0.000 A 
ATOM     63  CE1 PHE A   8       3.244   0.904   1.610  0.00  0.00    -0.000 A 
ATOM     64  CD1 PHE A   8       2.497  -0.272   1.630  0.00  0.00    -0.004 A 
ENDBRANCH  58  59
ENDBRANCH  46  58
ENDBRANCH  44  46
ENDBRANCH  41  42
ENDBRANCH  38  41
ENDBRANCH  36  37
ENDBRANCH  34  36
ENDBRANCH   1  32
BRANCH   1  65
ATOM     65  CB  ILE A   5       9.281  -3.590  10.087  0.00  0.00    +0.027 C 
ATOM     66  CG2 ILE A   5       9.779  -5.018  10.260  0.00  0.00    +0.002 C 
BRANCH  65  67
ATOM     67  CG1 ILE A   5      10.457  -2.622   9.943  0.00  0.00    +0.002 C 
ATOM     68  CD1 ILE A   5      11.343  -2.563  11.156  0.00  0.00    +0.000 C 
ENDBRANCH  65  67
ENDBRANCH   1  65
TORSDOF 29
REMARK  Name = ../refined-set-2016/1b6k/1b6k_pocket.pdb
REMARK  215 active torsions:
REMARK  status: ('A' for Active; 'I' for Inactive)
REMARK    1  A    between atoms: _1  and  _3
REMARK    2  A    between atoms: _3  and  _4
REMARK    3  A    between atoms: _3  and  _6
REMARK    4  A    between atoms: _6  and  _7
REMARK    5  A    between atoms: _7  and  _8
REMARK    6  A    between atoms: _8  and  _9
REMARK    7  A    between atoms: _18  and  _20
REMARK    8  A    between atoms: _20  and  _21
REMARK    9  A    between atoms: _20  and  _23
REMARK   10  A    between atoms: _23  and  _24
REMARK   11  A    between atoms: _27  and  _29
REMARK   12  A    between atoms: _29  and  _30
REMARK   13  A    between atoms: _29  and  _32
REMARK   14  A    between atoms: _32  and  _33
REMARK   15  A    between atoms: _36  and  _38
REMARK   16  A    between atoms: _38  and  _39
REMARK   17  A    between atoms: _38  and  _41
REMARK   18  A    between atoms: _41  and  _42
REMARK   19  A    between atoms: _45  and  _47
REMARK   20  A    between atoms: _47  and  _48
REMARK   21  A    between atoms: _47  and  _50
REMARK   22  A    between atoms: _50  and  _51
REMARK   23  A    between atoms: _54  and  _56
REMARK   24  A    between atoms: _56  and  _57
REMARK   25  A    between atoms: _59  and  _61
REMARK   26  A    between atoms: _61  and  _62
REMARK   27  A    between atoms: _65  and  _67
REMARK   28  A    between atoms: _67  and  _68
REMARK   29  A    between atoms: _67  and  _70
REMARK   30  A    between atoms: _70  and  _71
REMARK   31  A    between atoms: _74  and  _76
REMARK   32  A    between atoms: _76  and  _77
REMARK   33  A    between atoms: _76  and  _79
REMARK   34  A    between atoms: _79  and  _80
REMARK   35  A    between atoms: _83  and  _85
REMARK   36  A    between atoms: _85  and  _86
REMARK   37  A    between atoms: _85  and  _88
REMARK   38  A    between atoms: _88  and  _89
REMARK   39  A    between atoms: _92  and  _94
REMARK   40  A    between atoms: _94  and  _95
REMARK   41  A    between atoms: _94  and  _97
REMARK   42  A    between atoms: _100  and  _102
REMARK   43  A    between atoms: _102  and  _103
REMARK   44  A    between atoms: _102  and  _105
REMARK   45  A    between atoms: _105  and  _106
REMARK   46  A    between atoms: _106  and  _107
REMARK   47  A    between atoms: _109  and  _111
REMARK   48  A    between atoms: _111  and  _112
REMARK   49  A    between atoms: _111  and  _114
REMARK   50  A    between atoms: _114  and  _115
REMARK   51  A    between atoms: _118  and  _120
REMARK   52  A    between atoms: _120  and  _121
REMARK   53  A    between atoms: _123  and  _125
REMARK   54  A    between atoms: _125  and  _126
REMARK   55  A    between atoms: _128  and  _130
REMARK   56  A    between atoms: _130  and  _131
REMARK   57  A    between atoms: _130  and  _133
REMARK   58  A    between atoms: _133  and  _134
REMARK   59  A    between atoms: _137  and  _139
REMARK   60  A    between atoms: _139  and  _140
REMARK   61  A    between atoms: _142  and  _144
REMARK   62  A    between atoms: _144  and  _145
REMARK   63  A    between atoms: _147  and  _149
REMARK   64  A    between atoms: _149  and  _150
REMARK   65  A    between atoms: _149  and  _152
REMARK   66  A    between atoms: _152  and  _153
REMARK   67  A    between atoms: _159  and  _161
REMARK   68  A    between atoms: _161  and  _162
REMARK   69  A    between atoms: _161  and  _164
REMARK   70  A    between atoms: _164  and  _165
REMARK   71  A    between atoms: _168  and  _170
REMARK   72  A    between atoms: _170  and  _171
REMARK   73  A    between atoms: _170  and  _173
REMARK   74  A    between atoms: _173  and  _174
REMARK   75  A    between atoms: _177  and  _179
REMARK   76  A    between atoms: _179  and  _180
REMARK   77  A    between atoms: _179  and  _182
REMARK   78  A    between atoms: _182  and  _183
REMARK   79  A    between atoms: _187  and  _188
REMARK   80  A    between atoms: _193  and  _195
REMARK   81  A    between atoms: _195  and  _196
REMARK   82  A    between atoms: _195  and  _198
REMARK   83  A    between atoms: _201  and  _203
REMARK   84  A    between atoms: _203  and  _204
REMARK   85  A    between atoms: _203  and  _206
REMARK   86  A    between atoms: _206  and  _207
REMARK   87  A    between atoms: _212  and  _214
REMARK   88  A    between atoms: _214  and  _215
REMARK   89  A    between atoms: _214  and  _217
REMARK   90  A    between atoms: _217  and  _218
REMARK   91  A    between atoms: _221  and  _223
REMARK   92  A    between atoms: _223  and  _224
REMARK   93  A    between atoms: _223  and  _226
REMARK   94  A    between atoms: _226  and  _227
REMARK   95  A    between atoms: _230  and  _232
REMARK   96  A    between atoms: _232  and  _233
REMARK   97  A    between atoms: _235  and  _237
REMARK   98  A    between atoms: _237  and  _238
REMARK   99  A    between atoms: _237  and  _240
REMARK  100  A    between atoms: _240  and  _241
REMARK  101  A    between atoms: _241  and  _242
REMARK  102  A    between atoms: _242  and  _243
REMARK  103  A    between atoms: _252  and  _254
REMARK  104  A    between atoms: _254  and  _255
REMARK  105  A    between atoms: _254  and  _257
REMARK  106  A    between atoms: _257  and  _258
REMARK  107  A    between atoms: _258  and  _259
REMARK  108  A    between atoms: _259  and  _260
REMARK  109  A    between atoms: _269  and  _271
REMARK  110  A    between atoms: _271  and  _272
REMARK  111  A    between atoms: _271  and  _274
REMARK  112  A    between atoms: _274  and  _275
REMARK  113  A    between atoms: _278  and  _280
REMARK  114  A    between atoms: _280  and  _281
REMARK  115  A    between atoms: _280  and  _283
REMARK  116  A    between atoms: _283  and  _284
REMARK  117  A    between atoms: _287  and  _289
REMARK  118  A    between atoms: _289  and  _290
REMARK  119  A    between atoms: _289  and  _292
REMARK  120  A    between atoms: _292  and  _293
REMARK  121  A    between atoms: _296  and  _298
REMARK  122  A    between atoms: _298  and  _299
REMARK  123  A    between atoms: _298  and  _301
REMARK  124  A    between atoms: _301  and  _302
REMARK  125  A    between atoms: _305  and  _307
REMARK  126  A    between atoms: _307  and  _308
REMARK  127  A    between atoms: _307  and  _310
REMARK  128  A    between atoms: _310  and  _311
REMARK  129  A    between atoms: _314  and  _316
REMARK  130  A    between atoms: _316  and  _317
REMARK  131  A    between atoms: _319  and  _321
REMARK  132  A    between atoms: _321  and  _322
REMARK  133  A    between atoms: _325  and  _327
REMARK  134  A    between atoms: _327  and  _328
REMARK  135  A    between atoms: _327  and  _330
REMARK  136  A    between atoms: _330  and  _331
REMARK  137  A    between atoms: _334  and  _336
REMARK  138  A    between atoms: _336  and  _337
REMARK  139  A    between atoms: _336  and  _339
REMARK  140  A    between atoms: _339  and  _340
REMARK  141  A    between atoms: _343  and  _345
REMARK  142  A    between atoms: _345  and  _346
REMARK  143  A    between atoms: _345  and  _348
REMARK  144  A    between atoms: _348  and  _349
REMARK  145  A    between atoms: _352  and  _354
REMARK  146  A    between atoms: _354  and  _355
REMARK  147  A    between atoms: _354  and  _357
REMARK  148  A    between atoms: _360  and  _362
REMARK  149  A    between atoms: _362  and  _363
REMARK  150  A    between atoms: _362  and  _365
REMARK  151  A    between atoms: _365  and  _366
REMARK  152  A    between atoms: _366  and  _367
REMARK  153  A    between atoms: _367  and  _368
REMARK  154  A    between atoms: _368  and  _369
REMARK  155  A    between atoms: _373  and  _375
REMARK  156  A    between atoms: _375  and  _376
REMARK  157  A    between atoms: _375  and  _378
REMARK  158  A    between atoms: _378  and  _379
REMARK  159  A    between atoms: _379  and  _380
REMARK  160  A    between atoms: _382  and  _384
REMARK  161  A    between atoms: _384  and  _385
REMARK  162  A    between atoms: _384  and  _387
REMARK  163  A    between atoms: _387  and  _388
REMARK  164  A    between atoms: _391  and  _393
REMARK  165  A    between atoms: _393  and  _394
REMARK  166  A    between atoms: _396  and  _398
REMARK  167  A    between atoms: _398  and  _399
REMARK  168  A    between atoms: _401  and  _403
REMARK  169  A    between atoms: _403  and  _404
REMARK  170  A    between atoms: _403  and  _406
REMARK  171  A    between atoms: _406  and  _407
REMARK  172  A    between atoms: _410  and  _412
REMARK  173  A    between atoms: _412  and  _413
REMARK  174  A    between atoms: _415  and  _417
REMARK  175  A    between atoms: _417  and  _418
REMARK  176  A    between atoms: _420  and  _422
REMARK  177  A    between atoms: _422  and  _423
REMARK  178  A    between atoms: _422  and  _425
REMARK  179  A    between atoms: _425  and  _426
REMARK  180  A    between atoms: _432  and  _434
REMARK  181  A    between atoms: _434  and  _435
REMARK  182  A    between atoms: _434  and  _437
REMARK  183  A    between atoms: _437  and  _438
REMARK  184  A    between atoms: _441  and  _443
REMARK  185  A    between atoms: _443  and  _444
REMARK  186  A    between atoms: _443  and  _446
REMARK  187  A    between atoms: _446  and  _447
REMARK  188  A    between atoms: _450  and  _452
REMARK  189  A    between atoms: _452  and  _453
REMARK  190  A    between atoms: _452  and  _455
REMARK  191  A    between atoms: _455  and  _456
REMARK  192  A    between atoms: _460  and  _461
REMARK  193  A    between atoms: _466  and  _468
REMARK  194  A    between atoms: _468  and  _469
REMARK  195  A    between atoms: _468  and  _471
REMARK  196  A    between atoms: _474  and  _476
REMARK  197  A    between atoms: _476  and  _477
REMARK  198  A    between atoms: _476  and  _479
REMARK  199  A    between atoms: _479  and  _480
REMARK  200  A    between atoms: _485  and  _487
REMARK  201  A    between atoms: _487  and  _488
REMARK  202  A    between atoms: _487  and  _490
REMARK  203  A    between atoms: _490  and  _491
REMARK  204  A    between atoms: _494  and  _496
REMARK  205  A    between atoms: _496  and  _497
REMARK  206  A    between atoms: _496  and  _499
REMARK  207  A    between atoms: _499  and  _500
REMARK  208  A    between atoms: _503  and  _505
REMARK  209  A    between atoms: _505  and  _506
REMARK  210  A    between atoms: _508  and  _510
REMARK  211  A    between atoms: _510  and  _511
REMARK  212  A    between atoms: _510  and  _513
REMARK  213  A    between atoms: _513  and  _514
REMARK  214  A    between atoms: _514  and  _515
REMARK  215  A    between atoms: _515  and  _516
REMARK                            x       y       z     vdW  Elec       q    Type
REMARK                         _______ _______ _______ _____ _____    ______ ____
ROOT
ATOM      1  CA  LEU A   1      -7.930   1.484  10.028  0.00  0.00    +0.133 C 
ENDROOT
BRANCH   1   2
ATOM      2  N   LEU A   1      -8.170   2.392  11.159  0.00  0.00    -0.239 NA
ATOM      3  H   LEU A   1      -7.415   2.532  11.861  0.00  0.00    +0.142 HD
ENDBRANCH   1   2
BRANCH   1   4
ATOM      4  C   LEU A   1      -8.219   0.064  10.518  0.00  0.00    +0.224 C 
ATOM      5  O   LEU A   1      -7.786  -0.323  11.597  0.00  0.00    -0.287 OA
ENDBRANCH   1   4
BRANCH   1   6
ATOM      6  CB  LEU A   1      -6.474   1.594   9.566  0.00  0.00    +0.025 C 
BRANCH   6   7
ATOM      7  CG  LEU A   1      -5.980   3.000   9.213  0.00  0.00    +0.002 C 
ATOM      8  CD2 LEU A   1      -4.496   2.961   8.920  0.00  0.00    +0.000 C 
ATOM      9  CD1 LEU A   1      -6.741   3.545   8.019  0.00  0.00    +0.000 C 
ENDBRANCH   6   7
ENDBRANCH   1   6
TORSDOF 4
REMARK  Name = ../refined-set-2016/1b6k/1b6k_pocket.pdb
REMARK  215 active torsions:
REMARK  status: ('A' for Active; 'I' for Inactive)
REMARK    1  A    between atoms: _1  and  _3
REMARK    2  A    between atoms: _3  and  _4
REMARK    3  A    between atoms: _3  and  _6
REMARK    4  A    between atoms: _6  and  _7
REMARK    5  A    between atoms: _7  and  _8
REMARK    6  A    between atoms: _8  and  _9
REMARK    7  A    between atoms: _18  and  _20
REMARK    8  A    between atoms: _20  and  _21
REMARK    9  A    between atoms: _20  and  _23
REMARK   10  A    between atoms: _23  and  _24
REMARK   11  A    between atoms: _27  and  _29
REMARK   12  A    between atoms: _29  and  _30
REMARK   13  A    between atoms: _29  and  _32
REMARK   14  A    between atoms: _32  and  _33
REMARK   15  A    between atoms: _36  and  _38
REMARK   16  A    between atoms: _38  and  _39
REMARK   17  A    between atoms: _38  and  _41
REMARK   18  A    between atoms: _41  and  _42
REMARK   19  A    between atoms: _45  and  _47
REMARK   20  A    between atoms: _47  and  _48
REMARK   21  A    between atoms: _47  and  _50
REMARK   22  A    between atoms: _50  and  _51
REMARK   23  A    between atoms: _54  and  _56
REMARK   24  A    between atoms: _56  and  _57
REMARK   25  A    between atoms: _59  and  _61
REMARK   26  A    between atoms: _61  and  _62
REMARK   27  A    between atoms: _65  and  _67
REMARK   28  A    between atoms: _67  and  _68
REMARK   29  A    between atoms: _67  and  _70
REMARK   30  A    between atoms: _70  and  _71
REMARK   31  A    between atoms: _74  and  _76
REMARK   32  A    between atoms: _76  and  _77
REMARK   33  A    between atoms: _76  and  _79
REMARK   34  A    between atoms: _79  and  _80
REMARK   35  A    between atoms: _83  and  _85
REMARK   36  A    between atoms: _85  and  _86
REMARK   37  A    between atoms: _85  and  _88
REMARK   38  A    between atoms: _88  and  _89
REMARK   39  A    between atoms: _92  and  _94
REMARK   40  A    between atoms: _94  and  _95
REMARK   41  A    between atoms: _94  and  _97
REMARK   42  A    between atoms: _100  and  _102
REMARK   43  A    between atoms: _102  and  _103
REMARK   44  A    between atoms: _102  and  _105
REMARK   45  A    between atoms: _105  and  _106
REMARK   46  A    between atoms: _106  and  _107
REMARK   47  A    between atoms: _109  and  _111
REMARK   48  A    between atoms: _111  and  _112
REMARK   49  A    between atoms: _111  and  _114
REMARK   50  A    between atoms: _114  and  _115
REMARK   51  A    between atoms: _118  and  _120
REMARK   52  A    between atoms: _120  and  _121
REMARK   53  A    between atoms: _123  and  _125
REMARK   54  A    between atoms: _125  and  _126
REMARK   55  A    between atoms: _128  and  _130
REMARK   56  A    between atoms: _130  and  _131
REMARK   57  A    between atoms: _130  and  _133
REMARK   58  A    between atoms: _133  and  _134
REMARK   59  A    between atoms: _137  and  _139
REMARK   60  A    between atoms: _139  and  _140
REMARK   61  A    between atoms: _142  and  _144
REMARK   62  A    between atoms: _144  and  _145
REMARK   63  A    between atoms: _147  and  _149
REMARK   64  A    between atoms: _149  and  _150
REMARK   65  A    between atoms: _149  and  _152
REMARK   66  A    between atoms: _152  and  _153
REMARK   67  A    between atoms: _159  and  _161
REMARK   68  A    between atoms: _161  and  _162
REMARK   69  A    between atoms: _161  and  _164
REMARK   70  A    between atoms: _164  and  _165
REMARK   71  A    between atoms: _168  and  _170
REMARK   72  A    between atoms: _170  and  _171
REMARK   73  A    between atoms: _170  and  _173
REMARK   74  A    between atoms: _173  and  _174
REMARK   75  A    between atoms: _177  and  _179
REMARK   76  A    between atoms: _179  and  _180
REMARK   77  A    between atoms: _179  and  _182
REMARK   78  A    between atoms: _182  and  _183
REMARK   79  A    between atoms: _187  and  _188
REMARK   80  A    between atoms: _193  and  _195
REMARK   81  A    between atoms: _195  and  _196
REMARK   82  A    between atoms: _195  and  _198
REMARK   83  A    between atoms: _201  and  _203
REMARK   84  A    between atoms: _203  and  _204
REMARK   85  A    between atoms: _203  and  _206
REMARK   86  A    between atoms: _206  and  _207
REMARK   87  A    between atoms: _212  and  _214
REMARK   88  A    between atoms: _214  and  _215
REMARK   89  A    between atoms: _214  and  _217
REMARK   90  A    between atoms: _217  and  _218
REMARK   91  A    between atoms: _221  and  _223
REMARK   92  A    between atoms: _223  and  _224
REMARK   93  A    between atoms: _223  and  _226
REMARK   94  A    between atoms: _226  and  _227
REMARK   95  A    between atoms: _230  and  _232
REMARK   96  A    between atoms: _232  and  _233
REMARK   97  A    between atoms: _235  and  _237
REMARK   98  A    between atoms: _237  and  _238
REMARK   99  A    between atoms: _237  and  _240
REMARK  100  A    between atoms: _240  and  _241
REMARK  101  A    between atoms: _241  and  _242
REMARK  102  A    between atoms: _242  and  _243
REMARK  103  A    between atoms: _252  and  _254
REMARK  104  A    between atoms: _254  and  _255
REMARK  105  A    between atoms: _254  and  _257
REMARK  106  A    between atoms: _257  and  _258
REMARK  107  A    between atoms: _258  and  _259
REMARK  108  A    between atoms: _259  and  _260
REMARK  109  A    between atoms: _269  and  _271
REMARK  110  A    between atoms: _271  and  _272
REMARK  111  A    between atoms: _271  and  _274
REMARK  112  A    between atoms: _274  and  _275
REMARK  113  A    between atoms: _278  and  _280
REMARK  114  A    between atoms: _280  and  _281
REMARK  115  A    between atoms: _280  and  _283
REMARK  116  A    between atoms: _283  and  _284
REMARK  117  A    between atoms: _287  and  _289
REMARK  118  A    between atoms: _289  and  _290
REMARK  119  A    between atoms: _289  and  _292
REMARK  120  A    between atoms: _292  and  _293
REMARK  121  A    between atoms: _296  and  _298
REMARK  122  A    between atoms: _298  and  _299
REMARK  123  A    between atoms: _298  and  _301
REMARK  124  A    between atoms: _301  and  _302
REMARK  125  A    between atoms: _305  and  _307
REMARK  126  A    between atoms: _307  and  _308
REMARK  127  A    between atoms: _307  and  _310
REMARK  128  A    between atoms: _310  and  _311
REMARK  129  A    between atoms: _314  and  _316
REMARK  130  A    between atoms: _316  and  _317
REMARK  131  A    between atoms: _319  and  _321
REMARK  132  A    between atoms: _321  and  _322
REMARK  133  A    between atoms: _325  and  _327
REMARK  134  A    between atoms: _327  and  _328
REMARK  135  A    between atoms: _327  and  _330
REMARK  136  A    between atoms: _330  and  _331
REMARK  137  A    between atoms: _334  and  _336
REMARK  138  A    between atoms: _336  and  _337
REMARK  139  A    between atoms: _336  and  _339
REMARK  140  A    between atoms: _339  and  _340
REMARK  141  A    between atoms: _343  and  _345
REMARK  142  A    between atoms: _345  and  _346
REMARK  143  A    between atoms: _345  and  _348
REMARK  144  A    between atoms: _348  and  _349
REMARK  145  A    between atoms: _352  and  _354
REMARK  146  A    between atoms: _354  and  _355
REMARK  147  A    between atoms: _354  and  _357
REMARK  148  A    between atoms: _360  and  _362
REMARK  149  A    between atoms: _362  and  _363
REMARK  150  A    between atoms: _362  and  _365
REMARK  151  A    between atoms: _365  and  _366
REMARK  152  A    between atoms: _366  and  _367
REMARK  153  A    between atoms: _367  and  _368
REMARK  154  A    between atoms: _368  and  _369
REMARK  155  A    between atoms: _373  and  _375
REMARK  156  A    between atoms: _375  and  _376
REMARK  157  A    between atoms: _375  and  _378
REMARK  158  A    between atoms: _378  and  _379
REMARK  159  A    between atoms: _379  and  _380
REMARK  160  A    between atoms: _382  and  _384
REMARK  161  A    between atoms: _384  and  _385
REMARK  162  A    between atoms: _384  and  _387
REMARK  163  A    between atoms: _387  and  _388
REMARK  164  A    between atoms: _391  and  _393
REMARK  165  A    between atoms: _393  and  _394
REMARK  166  A    between atoms: _396  and  _398
REMARK  167  A    between atoms: _398  and  _399
REMARK  168  A    between atoms: _401  and  _403
REMARK  169  A    between atoms: _403  and  _404
REMARK  170  A    between atoms: _403  and  _406
REMARK  171  A    between atoms: _406  and  _407
REMARK  172  A    between atoms: _410  and  _412
REMARK  173  A    between atoms: _412  and  _413
REMARK  174  A    between atoms: _415  and  _417
REMARK  175  A    between atoms: _417  and  _418
REMARK  176  A    between atoms: _420  and  _422
REMARK  177  A    between atoms: _422  and  _423
REMARK  178  A    between atoms: _422  and  _425
REMARK  179  A    between atoms: _425  and  _426
REMARK  180  A    between atoms: _432  and  _434
REMARK  181  A    between atoms: _434  and  _435
REMARK  182  A    between atoms: _434  and  _437
REMARK  183  A    between atoms: _437  and  _438
REMARK  184  A    between atoms: _441  and  _443
REMARK  185  A    between atoms: _443  and  _444
REMARK  186  A    between atoms: _443  and  _446
REMARK  187  A    between atoms: _446  and  _447
REMARK  188  A    between atoms: _450  and  _452
REMARK  189  A    between atoms: _452  and  _453
REMARK  190  A    between atoms: _452  and  _455
REMARK  191  A    between atoms: _455  and  _456
REMARK  192  A    between atoms: _460  and  _461
REMARK  193  A    between atoms: _466  and  _468
REMARK  194  A    between atoms: _468  and  _469
REMARK  195  A    between atoms: _468  and  _471
REMARK  196  A    between atoms: _474  and  _476
REMARK  197  A    between atoms: _476  and  _477
REMARK  198  A    between atoms: _476  and  _479
REMARK  199  A    between atoms: _479  and  _480
REMARK  200  A    between atoms: _485  and  _487
REMARK  201  A    between atoms: _487  and  _488
REMARK  202  A    between atoms: _487  and  _490
REMARK  203  A    between atoms: _490  and  _491
REMARK  204  A    between atoms: _494  and  _496
REMARK  205  A    between atoms: _496  and  _497
REMARK  206  A    between atoms: _496  and  _499
REMARK  207  A    between atoms: _499  and  _500
REMARK  208  A    between atoms: _503  and  _505
REMARK  209  A    between atoms: _505  and  _506
REMARK  210  A    between atoms: _508  and  _510
REMARK  211  A    between atoms: _510  and  _511
REMARK  212  A    between atoms: _510  and  _513
REMARK  213  A    between atoms: _513  and  _514
REMARK  214  A    between atoms: _514  and  _515
REMARK  215  A    between atoms: _515  and  _516
REMARK                            x       y       z     vdW  Elec       q    Type
REMARK                         _______ _______ _______ _____ _____    ______ ____
ROOT
ATOM      1  CA  ILE A   5      -2.826  -0.662  17.836  0.00  0.00    +0.149 C 
ENDROOT
BRANCH   1   4
ATOM      2  C   ASN A   4      -3.953  -2.761  18.439  0.00  0.00    +0.241 C 
ATOM      3  O   ASN A   4      -3.384  -2.812  19.533  0.00  0.00    -0.273 OA
ATOM      4  N   ILE A   5      -3.770  -1.767  17.575  0.00  0.00    -0.297 N 
ATOM      5  H   ILE A   5      -4.310  -1.768  16.686  0.00  0.00    +0.150 HD
BRANCH   2   6
ATOM      6  CA  ASN A   4      -4.918  -3.869  18.013  0.00  0.00    +0.158 C 
BRANCH   6   8
ATOM      7  C   VAL A   3      -3.215  -5.471  17.234  0.00  0.00    +0.241 C 
ATOM      8  N   ASN A   4      -4.151  -5.128  18.126  0.00  0.00    -0.297 N 
ATOM      9  H   ASN A   4      -4.345  -5.767  18.924  0.00  0.00    +0.150 HD
ATOM     10  O   VAL A   3      -3.000  -4.818  16.217  0.00  0.00    -0.273 OA
BRANCH   7  11
ATOM     11  CA  VAL A   3      -2.433  -6.779  17.495  0.00  0.00    +0.149 C 
BRANCH  11  14
ATOM     12  C   PRO A   2      -1.725  -8.673  16.038  0.00  0.00    +0.241 C 
ATOM     13  O   PRO A   2      -2.003  -9.511  16.892  0.00  0.00    -0.273 OA
ATOM     14  N   VAL A   3      -1.931  -7.373  16.243  0.00  0.00    -0.297 N 
ATOM     15  H   VAL A   3      -1.721  -6.725  15.457  0.00  0.00    +0.150 HD
BRANCH  12  19
ATOM     16  C   THR A   1      -2.678  -7.814  13.249  0.00  0.00    +0.244 C 
ATOM     17  O   THR A   1      -3.647  -8.399  13.761  0.00  0.00    -0.273 OA
ATOM     18  N   PRO A   2      -1.403  -8.082  13.621  0.00  0.00    -0.272 N 
ATOM     19  CA  PRO A   2      -1.199  -9.087  14.683  0.00  0.00    +0.152 C 
ATOM     20  CB  PRO A   2       0.319  -9.282  14.678  0.00  0.00    +0.031 C 
ATOM     21  CG  PRO A   2       0.832  -7.961  14.216  0.00  0.00    +0.024 C 
ATOM     22  CD  PRO A   2      -0.137  -7.456  13.196  0.00  0.00    +0.094 C 
BRANCH  16  23
ATOM     23  CA  THR A   1      -2.879  -6.777  12.145  0.00  0.00    +0.172 C 
BRANCH  23  24
ATOM     24  CB  THR A   1      -3.157  -5.350  12.764  0.00  0.00    +0.135 C 
ATOM     25  CG2 THR A   1      -4.497  -5.314  13.492  0.00  0.00    +0.034 C 
BRANCH  24  26
ATOM     26  OG1 THR A   1      -2.101  -4.964  13.657  0.00  0.00    -0.383 OA
ATOM     27  HG1 THR A   1      -2.035  -5.623  14.393  0.00  0.00    +0.210 HD
ENDBRANCH  24  26
ENDBRANCH  23  24
BRANCH  23  28
ATOM     28  N   THR A   1      -3.971  -7.146  11.231  0.00  0.00    -0.236 NA
ATOM     29  H   THR A   1      -4.951  -6.973  11.533  0.00  0.00    +0.142 HD
ENDBRANCH  23  28
ENDBRANCH  16  23
ENDBRANCH  12  19
ENDBRANCH  11  14
BRANCH  11  30
ATOM     30  CB  VAL A   3      -1.273  -6.485  18.492  0.00  0.00    +0.027 C 
ATOM     31  CG2 VAL A   3      -1.812  -6.222  19.891  0.00  0.00    +0.002 C 
ATOM     32  CG1 VAL A   3      -0.437  -5.309  18.016  0.00  0.00    +0.002 C 
ENDBRANCH  11  30
ENDBRANCH   7  11
ENDBRANCH   6   8
BRANCH   6  33
ATOM     33  CB  ASN A   4      -6.134  -3.881  18.944  0.00  0.00    +0.114 C 
BRANCH  33  34
ATOM     34  CG  ASN A   4      -7.205  -4.835  18.487  0.00  0.00    +0.222 C 
ATOM     35  ND2 ASN A   4      -7.858  -5.497  19.436  0.00  0.00    -0.329 N 
ATOM     36 HD21 ASN A   4      -7.618  -5.344  20.436  0.00  0.00    +0.145 HD
ATOM     37 HD22 ASN A   4      -8.609  -6.169  19.179  0.00  0.00    +0.145 HD
ATOM     38  OD1 ASN A   4      -7.447  -4.977  17.292  0.00  0.00    -0.275 OA
ENDBRANCH  33  34
ENDBRANCH   6  33
ENDBRANCH   2   6
ENDBRANCH   1   4
BRANCH   1  39
ATOM     39  C   ILE A   5      -3.485   0.710  17.947  0.00  0.00    +0.241 C 
ATOM     40  N   ILE A   6      -3.200   1.413  19.043  0.00  0.00    -0.297 N 
ATOM     41  H   ILE A   6      -2.595   0.981  19.770  0.00  0.00    +0.150 HD
ATOM     42  O   ILE A   5      -4.247   1.101  17.070  0.00  0.00    -0.273 OA
BRANCH  40  43
ATOM     43  CA  ILE A   6      -3.709   2.778  19.265  0.00  0.00    +0.149 C 
BRANCH  43  44
ATOM     44  C   ILE A   6      -2.513   3.676  18.943  0.00  0.00    +0.241 C 
ATOM     45  O   ILE A   6      -1.510   3.688  19.667  0.00  0.00    -0.273 OA
ATOM     46  N   GLY A   7      -2.606   4.381  17.822  0.00  0.00    -0.295 N 
ATOM     47  H   GLY A   7      -3.470   4.313  17.247  0.00  0.00    +0.150 HD
BRANCH  46  48
ATOM     48  CA  GLY A   7      -1.527   5.244  17.384  0.00  0.00    +0.176 C 
BRANCH  48  49
ATOM     49  C   GLY A   7      -1.638   6.667  17.877  0.00  0.00    +0.243 C 
ATOM     50  O   GLY A   7      -2.579   7.012  18.587  0.00  0.00    -0.273 OA
ATOM     51  N   ARG A   8      -0.688   7.497  17.456  0.00  0.00    -0.298 N 
ATOM     52  H   ARG A   8       0.042   7.134  16.810  0.00  0.00    +0.150 HD
BRANCH  51  53
ATOM     53  CA  ARG A   8      -0.629   8.905  17.867  0.00  0.00    +0.137 C 
BRANCH  53  54
ATOM     54  C   ARG A   8      -1.860   9.734  17.537  0.00  0.00    +0.227 C 
ATOM     55  O   ARG A   8      -2.166  10.683  18.255  0.00  0.00    -0.286 OA
ENDBRANCH  53  54
BRANCH  53  56
ATOM     56  CB  ARG A   8       0.635   9.570  17.314  0.00  0.00    +0.031 C 
BRANCH  56  57
ATOM     57  CG  ARG A   8       1.927   8.971  17.860  0.00  0.00    +0.045 C 
BRANCH  57  58
ATOM     58  CD  ARG A   8       3.153   9.742  17.403  0.00  0.00    +0.174 C 
BRANCH  58  59
ATOM     59  NE  ARG A   8       3.294   9.754  15.939  0.00  0.00    -0.265 N 
ATOM     60  HE  ARG A   8       3.732   8.925  15.489  0.00  0.00    +0.259 HD
ATOM     61  CZ  ARG A   8       2.902  10.749  15.149  0.00  0.00    +0.342 C 
ATOM     62  NH2 ARG A   8       2.339  11.839  15.658  0.00  0.00    -0.292 N 
ATOM     63 HH21 ARG A   8       2.200  11.921  16.685  0.00  0.00    +0.255 HD
ATOM     64 HH22 ARG A   8       2.037  12.610  15.029  0.00  0.00    +0.255 HD
ATOM     65  NH1 ARG A   8       3.065  10.650  13.840  0.00  0.00    -0.292 N 
ATOM     66 HH11 ARG A   8       3.498   9.797  13.433  0.00  0.00    +0.255 HD
ATOM     67 HH12 ARG A   8       2.760  11.426  13.218  0.00  0.00    +0.255 HD
ENDBRANCH  58  59
ENDBRANCH  57  58
ENDBRANCH  56  57
ENDBRANCH  53  56
ENDBRANCH  51  53
ENDBRANCH  48  49
ENDBRANCH  46  48
ENDBRANCH  43  44
BRANCH  43  68
ATOM     68  CB  ILE A   6      -4.150   3.008  20.728  0.00  0.00    +0.027 C 
ATOM     69  CG2 ILE A   6      -4.620   4.455  20.916  0.00  0.00    +0.002 C 
BRANCH  68  70
ATOM     70  CG1 ILE A   6      -5.261   2.026  21.111  0.00  0.00    +0.002 C 
ATOM     71  CD1 ILE A   6      -6.518   2.137  20.257  0.00  0.00    +0.000 C 
ENDBRANCH  68  70
ENDBRANCH  43  68
ENDBRANCH  40  43
ENDBRANCH   1  39
BRANCH   1  72
ATOM     72  CB  ILE A   5      -1.766  -0.594  16.700  0.00  0.00    +0.027 C 
ATOM     73  CG2 ILE A   5      -0.889   0.651  16.834  0.00  0.00    +0.002 C 
BRANCH  72  74
ATOM     74  CG1 ILE A   5      -0.904  -1.864  16.711  0.00  0.00    +0.002 C 
ATOM     75  CD1 ILE A   5      -0.153  -2.115  15.425  0.00  0.00    +0.000 C 
ENDBRANCH  72  74
ENDBRANCH   1  72
TORSDOF 28
REMARK  Name = ../refined-set-2016/1b6k/1b6k_pocket.pdb
REMARK  215 active torsions:
REMARK  status: ('A' for Active; 'I' for Inactive)
REMARK    1  A    between atoms: _1  and  _3
REMARK    2  A    between atoms: _3  and  _4
REMARK    3  A    between atoms: _3  and  _6
REMARK    4  A    between atoms: _6  and  _7
REMARK    5  A    between atoms: _7  and  _8
REMARK    6  A    between atoms: _8  and  _9
REMARK    7  A    between atoms: _18  and  _20
REMARK    8  A    between atoms: _20  and  _21
REMARK    9  A    between atoms: _20  and  _23
REMARK   10  A    between atoms: _23  and  _24
REMARK   11  A    between atoms: _27  and  _29
REMARK   12  A    between atoms: _29  and  _30
REMARK   13  A    between atoms: _29  and  _32
REMARK   14  A    between atoms: _32  and  _33
REMARK   15  A    between atoms: _36  and  _38
REMARK   16  A    between atoms: _38  and  _39
REMARK   17  A    between atoms: _38  and  _41
REMARK   18  A    between atoms: _41  and  _42
REMARK   19  A    between atoms: _45  and  _47
REMARK   20  A    between atoms: _47  and  _48
REMARK   21  A    between atoms: _47  and  _50
REMARK   22  A    between atoms: _50  and  _51
REMARK   23  A    between atoms: _54  and  _56
REMARK   24  A    between atoms: _56  and  _57
REMARK   25  A    between atoms: _59  and  _61
REMARK   26  A    between atoms: _61  and  _62
REMARK   27  A    between atoms: _65  and  _67
REMARK   28  A    between atoms: _67  and  _68
REMARK   29  A    between atoms: _67  and  _70
REMARK   30  A    between atoms: _70  and  _71
REMARK   31  A    between atoms: _74  and  _76
REMARK   32  A    between atoms: _76  and  _77
REMARK   33  A    between atoms: _76  and  _79
REMARK   34  A    between atoms: _79  and  _80
REMARK   35  A    between atoms: _83  and  _85
REMARK   36  A    between atoms: _85  and  _86
REMARK   37  A    between atoms: _85  and  _88
REMARK   38  A    between atoms: _88  and  _89
REMARK   39  A    between atoms: _92  and  _94
REMARK   40  A    between atoms: _94  and  _95
REMARK   41  A    between atoms: _94  and  _97
REMARK   42  A    between atoms: _100  and  _102
REMARK   43  A    between atoms: _102  and  _103
REMARK   44  A    between atoms: _102  and  _105
REMARK   45  A    between atoms: _105  and  _106
REMARK   46  A    between atoms: _106  and  _107
REMARK   47  A    between atoms: _109  and  _111
REMARK   48  A    between atoms: _111  and  _112
REMARK   49  A    between atoms: _111  and  _114
REMARK   50  A    between atoms: _114  and  _115
REMARK   51  A    between atoms: _118  and  _120
REMARK   52  A    between atoms: _120  and  _121
REMARK   53  A    between atoms: _123  and  _125
REMARK   54  A    between atoms: _125  and  _126
REMARK   55  A    between atoms: _128  and  _130
REMARK   56  A    between atoms: _130  and  _131
REMARK   57  A    between atoms: _130  and  _133
REMARK   58  A    between atoms: _133  and  _134
REMARK   59  A    between atoms: _137  and  _139
REMARK   60  A    between atoms: _139  and  _140
REMARK   61  A    between atoms: _142  and  _144
REMARK   62  A    between atoms: _144  and  _145
REMARK   63  A    between atoms: _147  and  _149
REMARK   64  A    between atoms: _149  and  _150
REMARK   65  A    between atoms: _149  and  _152
REMARK   66  A    between atoms: _152  and  _153
REMARK   67  A    between atoms: _159  and  _161
REMARK   68  A    between atoms: _161  and  _162
REMARK   69  A    between atoms: _161  and  _164
REMARK   70  A    between atoms: _164  and  _165
REMARK   71  A    between atoms: _168  and  _170
REMARK   72  A    between atoms: _170  and  _171
REMARK   73  A    between atoms: _170  and  _173
REMARK   74  A    between atoms: _173  and  _174
REMARK   75  A    between atoms: _177  and  _179
REMARK   76  A    between atoms: _179  and  _180
REMARK   77  A    between atoms: _179  and  _182
REMARK   78  A    between atoms: _182  and  _183
REMARK   79  A    between atoms: _187  and  _188
REMARK   80  A    between atoms: _193  and  _195
REMARK   81  A    between atoms: _195  and  _196
REMARK   82  A    between atoms: _195  and  _198
REMARK   83  A    between atoms: _201  and  _203
REMARK   84  A    between atoms: _203  and  _204
REMARK   85  A    between atoms: _203  and  _206
REMARK   86  A    between atoms: _206  and  _207
REMARK   87  A    between atoms: _212  and  _214
REMARK   88  A    between atoms: _214  and  _215
REMARK   89  A    between atoms: _214  and  _217
REMARK   90  A    between atoms: _217  and  _218
REMARK   91  A    between atoms: _221  and  _223
REMARK   92  A    between atoms: _223  and  _224
REMARK   93  A    between atoms: _223  and  _226
REMARK   94  A    between atoms: _226  and  _227
REMARK   95  A    between atoms: _230  and  _232
REMARK   96  A    between atoms: _232  and  _233
REMARK   97  A    between atoms: _235  and  _237
REMARK   98  A    between atoms: _237  and  _238
REMARK   99  A    between atoms: _237  and  _240
REMARK  100  A    between atoms: _240  and  _241
REMARK  101  A    between atoms: _241  and  _242
REMARK  102  A    between atoms: _242  and  _243
REMARK  103  A    between atoms: _252  and  _254
REMARK  104  A    between atoms: _254  and  _255
REMARK  105  A    between atoms: _254  and  _257
REMARK  106  A    between atoms: _257  and  _258
REMARK  107  A    between atoms: _258  and  _259
REMARK  108  A    between atoms: _259  and  _260
REMARK  109  A    between atoms: _269  and  _271
REMARK  110  A    between atoms: _271  and  _272
REMARK  111  A    between atoms: _271  and  _274
REMARK  112  A    between atoms: _274  and  _275
REMARK  113  A    between atoms: _278  and  _280
REMARK  114  A    between atoms: _280  and  _281
REMARK  115  A    between atoms: _280  and  _283
REMARK  116  A    between atoms: _283  and  _284
REMARK  117  A    between atoms: _287  and  _289
REMARK  118  A    between atoms: _289  and  _290
REMARK  119  A    between atoms: _289  and  _292
REMARK  120  A    between atoms: _292  and  _293
REMARK  121  A    between atoms: _296  and  _298
REMARK  122  A    between atoms: _298  and  _299
REMARK  123  A    between atoms: _298  and  _301
REMARK  124  A    between atoms: _301  and  _302
REMARK  125  A    between atoms: _305  and  _307
REMARK  126  A    between atoms: _307  and  _308
REMARK  127  A    between atoms: _307  and  _310
REMARK  128  A    between atoms: _310  and  _311
REMARK  129  A    between atoms: _314  and  _316
REMARK  130  A    between atoms: _316  and  _317
REMARK  131  A    between atoms: _319  and  _321
REMARK  132  A    between atoms: _321  and  _322
REMARK  133  A    between atoms: _325  and  _327
REMARK  134  A    between atoms: _327  and  _328
REMARK  135  A    between atoms: _327  and  _330
REMARK  136  A    between atoms: _330  and  _331
REMARK  137  A    between atoms: _334  and  _336
REMARK  138  A    between atoms: _336  and  _337
REMARK  139  A    between atoms: _336  and  _339
REMARK  140  A    between atoms: _339  and  _340
REMARK  141  A    between atoms: _343  and  _345
REMARK  142  A    between atoms: _345  and  _346
REMARK  143  A    between atoms: _345  and  _348
REMARK  144  A    between atoms: _348  and  _349
REMARK  145  A    between atoms: _352  and  _354
REMARK  146  A    between atoms: _354  and  _355
REMARK  147  A    between atoms: _354  and  _357
REMARK  148  A    between atoms: _360  and  _362
REMARK  149  A    between atoms: _362  and  _363
REMARK  150  A    between atoms: _362  and  _365
REMARK  151  A    between atoms: _365  and  _366
REMARK  152  A    between atoms: _366  and  _367
REMARK  153  A    between atoms: _367  and  _368
REMARK  154  A    between atoms: _368  and  _369
REMARK  155  A    between atoms: _373  and  _375
REMARK  156  A    between atoms: _375  and  _376
REMARK  157  A    between atoms: _375  and  _378
REMARK  158  A    between atoms: _378  and  _379
REMARK  159  A    between atoms: _379  and  _380
REMARK  160  A    between atoms: _382  and  _384
REMARK  161  A    between atoms: _384  and  _385
REMARK  162  A    between atoms: _384  and  _387
REMARK  163  A    between atoms: _387  and  _388
REMARK  164  A    between atoms: _391  and  _393
REMARK  165  A    between atoms: _393  and  _394
REMARK  166  A    between atoms: _396  and  _398
REMARK  167  A    between atoms: _398  and  _399
REMARK  168  A    between atoms: _401  and  _403
REMARK  169  A    between atoms: _403  and  _404
REMARK  170  A    between atoms: _403  and  _406
REMARK  171  A    between atoms: _406  and  _407
REMARK  172  A    between atoms: _410  and  _412
REMARK  173  A    between atoms: _412  and  _413
REMARK  174  A    between atoms: _415  and  _417
REMARK  175  A    between atoms: _417  and  _418
REMARK  176  A    between atoms: _420  and  _422
REMARK  177  A    between atoms: _422  and  _423
REMARK  178  A    between atoms: _422  and  _425
REMARK  179  A    between atoms: _425  and  _426
REMARK  180  A    between atoms: _432  and  _434
REMARK  181  A    between atoms: _434  and  _435
REMARK  182  A    between atoms: _434  and  _437
REMARK  183  A    between atoms: _437  and  _438
REMARK  184  A    between atoms: _441  and  _443
REMARK  185  A    between atoms: _443  and  _444
REMARK  186  A    between atoms: _443  and  _446
REMARK  187  A    between atoms: _446  and  _447
REMARK  188  A    between atoms: _450  and  _452
REMARK  189  A    between atoms: _452  and  _453
REMARK  190  A    between atoms: _452  and  _455
REMARK  191  A    between atoms: _455  and  _456
REMARK  192  A    between atoms: _460  and  _461
REMARK  193  A    between atoms: _466  and  _468
REMARK  194  A    between atoms: _468  and  _469
REMARK  195  A    between atoms: _468  and  _471
REMARK  196  A    between atoms: _474  and  _476
REMARK  197  A    between atoms: _476  and  _477
REMARK  198  A    between atoms: _476  and  _479
REMARK  199  A    between atoms: _479  and  _480
REMARK  200  A    between atoms: _485  and  _487
REMARK  201  A    between atoms: _487  and  _488
REMARK  202  A    between atoms: _487  and  _490
REMARK  203  A    between atoms: _490  and  _491
REMARK  204  A    between atoms: _494  and  _496
REMARK  205  A    between atoms: _496  and  _497
REMARK  206  A    between atoms: _496  and  _499
REMARK  207  A    between atoms: _499  and  _500
REMARK  208  A    between atoms: _503  and  _505
REMARK  209  A    between atoms: _505  and  _506
REMARK  210  A    between atoms: _508  and  _510
REMARK  211  A    between atoms: _510  and  _511
REMARK  212  A    between atoms: _510  and  _513
REMARK  213  A    between atoms: _513  and  _514
REMARK  214  A    between atoms: _514  and  _515
REMARK  215  A    between atoms: _515  and  _516
REMARK                            x       y       z     vdW  Elec       q    Type
REMARK                         _______ _______ _______ _____ _____    ______ ____
ROOT
ATOM      1  NE  ARG A   1       6.436   8.809  11.369  0.00  0.00    -0.265 N 
ATOM      2  HE  ARG A   1       5.416   8.944  11.518  0.00  0.00    +0.259 HD
ATOM      3  CZ  ARG A   1       6.826   8.192  10.260  0.00  0.00    +0.342 C 
ATOM      4  NH2 ARG A   1       8.119   7.996  10.031  0.00  0.00    -0.292 N 
ATOM      5 HH21 ARG A   1       8.825   8.326  10.720  0.00  0.00    +0.255 HD
ATOM      6 HH22 ARG A   1       8.426   7.513   9.163  0.00  0.00    +0.255 HD
ATOM      7  NH1 ARG A   1       5.923   7.780   9.379  0.00  0.00    -0.292 N 
ATOM      8 HH11 ARG A   1       4.911   7.941   9.558  0.00  0.00    +0.255 HD
ATOM      9 HH12 ARG A   1       6.227   7.297   8.510  0.00  0.00    +0.255 HD
ENDROOT
BRANCH   1  10
ATOM     10  CD  ARG A   1       7.354   9.312  12.397  0.00  0.00    +0.174 C 
BRANCH  10  11
ATOM     11  CG  ARG A   1       6.601   9.983  13.519  0.00  0.00    +0.045 C 
BRANCH  11  12
ATOM     12  CB  ARG A   1       7.549  10.439  14.583  0.00  0.00    +0.029 C 
BRANCH  12  13
ATOM     13  CA  ARG A   1       6.874  11.072  15.792  0.00  0.00    +0.133 C 
BRANCH  13  14
ATOM     14  N   ARG A   1       6.235  12.346  15.426  0.00  0.00    -0.239 NA
ATOM     15  H   ARG A   1       6.335  12.705  14.455  0.00  0.00    +0.142 HD
ENDBRANCH  13  14
BRANCH  13  16
ATOM     16  C   ARG A   1       7.948  11.381  16.823  0.00  0.00    +0.224 C 
ATOM     17  O   ARG A   1       8.722  12.330  16.652  0.00  0.00    -0.287 OA
ENDBRANCH  13  16
ENDBRANCH  12  13
ENDBRANCH  11  12
ENDBRANCH  10  11
ENDBRANCH   1  10
TORSDOF 6
REMARK  Name = ../refined-set-2016/1b6k/1b6k_pocket.pdb
REMARK  215 active torsions:
REMARK  status: ('A' for Active; 'I' for Inactive)
REMARK    1  A    between atoms: _1  and  _3
REMARK    2  A    between atoms: _3  and  _4
REMARK    3  A    between atoms: _3  and  _6
REMARK    4  A    between atoms: _6  and  _7
REMARK    5  A    between atoms: _7  and  _8
REMARK    6  A    between atoms: _8  and  _9
REMARK    7  A    between atoms: _18  and  _20
REMARK    8  A    between atoms: _20  and  _21
REMARK    9  A    between atoms: _20  and  _23
REMARK   10  A    between atoms: _23  and  _24
REMARK   11  A    between atoms: _27  and  _29
REMARK   12  A    between atoms: _29  and  _30
REMARK   13  A    between atoms: _29  and  _32
REMARK   14  A    between atoms: _32  and  _33
REMARK   15  A    between atoms: _36  and  _38
REMARK   16  A    between atoms: _38  and  _39
REMARK   17  A    between atoms: _38  and  _41
REMARK   18  A    between atoms: _41  and  _42
REMARK   19  A    between atoms: _45  and  _47
REMARK   20  A    between atoms: _47  and  _48
REMARK   21  A    between atoms: _47  and  _50
REMARK   22  A    between atoms: _50  and  _51
REMARK   23  A    between atoms: _54  and  _56
REMARK   24  A    between atoms: _56  and  _57
REMARK   25  A    between atoms: _59  and  _61
REMARK   26  A    between atoms: _61  and  _62
REMARK   27  A    between atoms: _65  and  _67
REMARK   28  A    between atoms: _67  and  _68
REMARK   29  A    between atoms: _67  and  _70
REMARK   30  A    between atoms: _70  and  _71
REMARK   31  A    between atoms: _74  and  _76
REMARK   32  A    between atoms: _76  and  _77
REMARK   33  A    between atoms: _76  and  _79
REMARK   34  A    between atoms: _79  and  _80
REMARK   35  A    between atoms: _83  and  _85
REMARK   36  A    between atoms: _85  and  _86
REMARK   37  A    between atoms: _85  and  _88
REMARK   38  A    between atoms: _88  and  _89
REMARK   39  A    between atoms: _92  and  _94
REMARK   40  A    between atoms: _94  and  _95
REMARK   41  A    between atoms: _94  and  _97
REMARK   42  A    between atoms: _100  and  _102
REMARK   43  A    between atoms: _102  and  _103
REMARK   44  A    between atoms: _102  and  _105
REMARK   45  A    between atoms: _105  and  _106
REMARK   46  A    between atoms: _106  and  _107
REMARK   47  A    between atoms: _109  and  _111
REMARK   48  A    between atoms: _111  and  _112
REMARK   49  A    between atoms: _111  and  _114
REMARK   50  A    between atoms: _114  and  _115
REMARK   51  A    between atoms: _118  and  _120
REMARK   52  A    between atoms: _120  and  _121
REMARK   53  A    between atoms: _123  and  _125
REMARK   54  A    between atoms: _125  and  _126
REMARK   55  A    between atoms: _128  and  _130
REMARK   56  A    between atoms: _130  and  _131
REMARK   57  A    between atoms: _130  and  _133
REMARK   58  A    between atoms: _133  and  _134
REMARK   59  A    between atoms: _137  and  _139
REMARK   60  A    between atoms: _139  and  _140
REMARK   61  A    between atoms: _142  and  _144
REMARK   62  A    between atoms: _144  and  _145
REMARK   63  A    between atoms: _147  and  _149
REMARK   64  A    between atoms: _149  and  _150
REMARK   65  A    between atoms: _149  and  _152
REMARK   66  A    between atoms: _152  and  _153
REMARK   67  A    between atoms: _159  and  _161
REMARK   68  A    between atoms: _161  and  _162
REMARK   69  A    between atoms: _161  and  _164
REMARK   70  A    between atoms: _164  and  _165
REMARK   71  A    between atoms: _168  and  _170
REMARK   72  A    between atoms: _170  and  _171
REMARK   73  A    between atoms: _170  and  _173
REMARK   74  A    between atoms: _173  and  _174
REMARK   75  A    between atoms: _177  and  _179
REMARK   76  A    between atoms: _179  and  _180
REMARK   77  A    between atoms: _179  and  _182
REMARK   78  A    between atoms: _182  and  _183
REMARK   79  A    between atoms: _187  and  _188
REMARK   80  A    between atoms: _193  and  _195
REMARK   81  A    between atoms: _195  and  _196
REMARK   82  A    between atoms: _195  and  _198
REMARK   83  A    between atoms: _201  and  _203
REMARK   84  A    between atoms: _203  and  _204
REMARK   85  A    between atoms: _203  and  _206
REMARK   86  A    between atoms: _206  and  _207
REMARK   87  A    between atoms: _212  and  _214
REMARK   88  A    between atoms: _214  and  _215
REMARK   89  A    between atoms: _214  and  _217
REMARK   90  A    between atoms: _217  and  _218
REMARK   91  A    between atoms: _221  and  _223
REMARK   92  A    between atoms: _223  and  _224
REMARK   93  A    between atoms: _223  and  _226
REMARK   94  A    between atoms: _226  and  _227
REMARK   95  A    between atoms: _230  and  _232
REMARK   96  A    between atoms: _232  and  _233
REMARK   97  A    between atoms: _235  and  _237
REMARK   98  A    between atoms: _237  and  _238
REMARK   99  A    between atoms: _237  and  _240
REMARK  100  A    between atoms: _240  and  _241
REMARK  101  A    between atoms: _241  and  _242
REMARK  102  A    between atoms: _242  and  _243
REMARK  103  A    between atoms: _252  and  _254
REMARK  104  A    between atoms: _254  and  _255
REMARK  105  A    between atoms: _254  and  _257
REMARK  106  A    between atoms: _257  and  _258
REMARK  107  A    between atoms: _258  and  _259
REMARK  108  A    between atoms: _259  and  _260
REMARK  109  A    between atoms: _269  and  _271
REMARK  110  A    between atoms: _271  and  _272
REMARK  111  A    between atoms: _271  and  _274
REMARK  112  A    between atoms: _274  and  _275
REMARK  113  A    between atoms: _278  and  _280
REMARK  114  A    between atoms: _280  and  _281
REMARK  115  A    between atoms: _280  and  _283
REMARK  116  A    between atoms: _283  and  _284
REMARK  117  A    between atoms: _287  and  _289
REMARK  118  A    between atoms: _289  and  _290
REMARK  119  A    between atoms: _289  and  _292
REMARK  120  A    between atoms: _292  and  _293
REMARK  121  A    between atoms: _296  and  _298
REMARK  122  A    between atoms: _298  and  _299
REMARK  123  A    between atoms: _298  and  _301
REMARK  124  A    between atoms: _301  and  _302
REMARK  125  A    between atoms: _305  and  _307
REMARK  126  A    between atoms: _307  and  _308
REMARK  127  A    between atoms: _307  and  _310
REMARK  128  A    between atoms: _310  and  _311
REMARK  129  A    between atoms: _314  and  _316
REMARK  130  A    between atoms: _316  and  _317
REMARK  131  A    between atoms: _319  and  _321
REMARK  132  A    between atoms: _321  and  _322
REMARK  133  A    between atoms: _325  and  _327
REMARK  134  A    between atoms: _327  and  _328
REMARK  135  A    between atoms: _327  and  _330
REMARK  136  A    between atoms: _330  and  _331
REMARK  137  A    between atoms: _334  and  _336
REMARK  138  A    between atoms: _336  and  _337
REMARK  139  A    between atoms: _336  and  _339
REMARK  140  A    between atoms: _339  and  _340
REMARK  141  A    between atoms: _343  and  _345
REMARK  142  A    between atoms: _345  and  _346
REMARK  143  A    between atoms: _345  and  _348
REMARK  144  A    between atoms: _348  and  _349
REMARK  145  A    between atoms: _352  and  _354
REMARK  146  A    between atoms: _354  and  _355
REMARK  147  A    between atoms: _354  and  _357
REMARK  148  A    between atoms: _360  and  _362
REMARK  149  A    between atoms: _362  and  _363
REMARK  150  A    between atoms: _362  and  _365
REMARK  151  A    between atoms: _365  and  _366
REMARK  152  A    between atoms: _366  and  _367
REMARK  153  A    between atoms: _367  and  _368
REMARK  154  A    between atoms: _368  and  _369
REMARK  155  A    between atoms: _373  and  _375
REMARK  156  A    between atoms: _375  and  _376
REMARK  157  A    between atoms: _375  and  _378
REMARK  158  A    between atoms: _378  and  _379
REMARK  159  A    between atoms: _379  and  _380
REMARK  160  A    between atoms: _382  and  _384
REMARK  161  A    between atoms: _384  and  _385
REMARK  162  A    between atoms: _384  and  _387
REMARK  163  A    between atoms: _387  and  _388
REMARK  164  A    between atoms: _391  and  _393
REMARK  165  A    between atoms: _393  and  _394
REMARK  166  A    between atoms: _396  and  _398
REMARK  167  A    between atoms: _398  and  _399
REMARK  168  A    between atoms: _401  and  _403
REMARK  169  A    between atoms: _403  and  _404
REMARK  170  A    between atoms: _403  and  _406
REMARK  171  A    between atoms: _406  and  _407
REMARK  172  A    between atoms: _410  and  _412
REMARK  173  A    between atoms: _412  and  _413
REMARK  174  A    between atoms: _415  and  _417
REMARK  175  A    between atoms: _417  and  _418
REMARK  176  A    between atoms: _420  and  _422
REMARK  177  A    between atoms: _422  and  _423
REMARK  178  A    between atoms: _422  and  _425
REMARK  179  A    between atoms: _425  and  _426
REMARK  180  A    between atoms: _432  and  _434
REMARK  181  A    between atoms: _434  and  _435
REMARK  182  A    between atoms: _434  and  _437
REMARK  183  A    between atoms: _437  and  _438
REMARK  184  A    between atoms: _441  and  _443
REMARK  185  A    between atoms: _443  and  _444
REMARK  186  A    between atoms: _443  and  _446
REMARK  187  A    between atoms: _446  and  _447
REMARK  188  A    between atoms: _450  and  _452
REMARK  189  A    between atoms: _452  and  _453
REMARK  190  A    between atoms: _452  and  _455
REMARK  191  A    between atoms: _455  and  _456
REMARK  192  A    between atoms: _460  and  _461
REMARK  193  A    between atoms: _466  and  _468
REMARK  194  A    between atoms: _468  and  _469
REMARK  195  A    between atoms: _468  and  _471
REMARK  196  A    between atoms: _474  and  _476
REMARK  197  A    between atoms: _476  and  _477
REMARK  198  A    between atoms: _476  and  _479
REMARK  199  A    between atoms: _479  and  _480
REMARK  200  A    between atoms: _485  and  _487
REMARK  201  A    between atoms: _487  and  _488
REMARK  202  A    between atoms: _487  and  _490
REMARK  203  A    between atoms: _490  and  _491
REMARK  204  A    between atoms: _494  and  _496
REMARK  205  A    between atoms: _496  and  _497
REMARK  206  A    between atoms: _496  and  _499
REMARK  207  A    between atoms: _499  and  _500
REMARK  208  A    between atoms: _503  and  _505
REMARK  209  A    between atoms: _505  and  _506
REMARK  210  A    between atoms: _508  and  _510
REMARK  211  A    between atoms: _510  and  _511
REMARK  212  A    between atoms: _510  and  _513
REMARK  213  A    between atoms: _513  and  _514
REMARK  214  A    between atoms: _514  and  _515
REMARK  215  A    between atoms: _515  and  _516
REMARK                            x       y       z     vdW  Elec       q    Type
REMARK                         _______ _______ _______ _____ _____    ______ ____
ROOT
ATOM      1  CA  LEU A   1      12.423  10.886  17.238  0.00  0.00    +0.133 C 
ENDROOT
BRANCH   1   2
ATOM      2  N   LEU A   1      11.057  11.167  17.722  0.00  0.00    -0.239 NA
ATOM      3  H   LEU A   1      10.584  12.034  17.396  0.00  0.00    +0.142 HD
ENDBRANCH   1   2
BRANCH   1   4
ATOM      4  C   LEU A   1      13.453  11.596  18.106  0.00  0.00    +0.224 C 
ATOM      5  O   LEU A   1      13.345  12.799  18.358  0.00  0.00    -0.287 OA
ENDBRANCH   1   4
BRANCH   1   6
ATOM      6  CB  LEU A   1      12.594  11.365  15.800  0.00  0.00    +0.025 C 
BRANCH   6   7
ATOM      7  CG  LEU A   1      11.698  10.747  14.736  0.00  0.00    +0.002 C 
ATOM      8  CD2 LEU A   1      12.053   9.281  14.554  0.00  0.00    +0.000 C 
ATOM      9  CD1 LEU A   1      11.867  11.509  13.432  0.00  0.00    +0.000 C 
ENDBRANCH   6   7
ENDBRANCH   1   6
TORSDOF 4
REMARK  Name = ../refined-set-2016/1b6k/1b6k_pocket.pdb
REMARK  215 active torsions:
REMARK  status: ('A' for Active; 'I' for Inactive)
REMARK    1  A    between atoms: _1  and  _3
REMARK    2  A    between atoms: _3  and  _4
REMARK    3  A    between atoms: _3  and  _6
REMARK    4  A    between atoms: _6  and  _7
REMARK    5  A    between atoms: _7  and  _8
REMARK    6  A    between atoms: _8  and  _9
REMARK    7  A    between atoms: _18  and  _20
REMARK    8  A    between atoms: _20  and  _21
REMARK    9  A    between atoms: _20  and  _23
REMARK   10  A    between atoms: _23  and  _24
REMARK   11  A    between atoms: _27  and  _29
REMARK   12  A    between atoms: _29  and  _30
REMARK   13  A    between atoms: _29  and  _32
REMARK   14  A    between atoms: _32  and  _33
REMARK   15  A    between atoms: _36  and  _38
REMARK   16  A    between atoms: _38  and  _39
REMARK   17  A    between atoms: _38  and  _41
REMARK   18  A    between atoms: _41  and  _42
REMARK   19  A    between atoms: _45  and  _47
REMARK   20  A    between atoms: _47  and  _48
REMARK   21  A    between atoms: _47  and  _50
REMARK   22  A    between atoms: _50  and  _51
REMARK   23  A    between atoms: _54  and  _56
REMARK   24  A    between atoms: _56  and  _57
REMARK   25  A    between atoms: _59  and  _61
REMARK   26  A    between atoms: _61  and  _62
REMARK   27  A    between atoms: _65  and  _67
REMARK   28  A    between atoms: _67  and  _68
REMARK   29  A    between atoms: _67  and  _70
REMARK   30  A    between atoms: _70  and  _71
REMARK   31  A    between atoms: _74  and  _76
REMARK   32  A    between atoms: _76  and  _77
REMARK   33  A    between atoms: _76  and  _79
REMARK   34  A    between atoms: _79  and  _80
REMARK   35  A    between atoms: _83  and  _85
REMARK   36  A    between atoms: _85  and  _86
REMARK   37  A    between atoms: _85  and  _88
REMARK   38  A    between atoms: _88  and  _89
REMARK   39  A    between atoms: _92  and  _94
REMARK   40  A    between atoms: _94  and  _95
REMARK   41  A    between atoms: _94  and  _97
REMARK   42  A    between atoms: _100  and  _102
REMARK   43  A    between atoms: _102  and  _103
REMARK   44  A    between atoms: _102  and  _105
REMARK   45  A    between atoms: _105  and  _106
REMARK   46  A    between atoms: _106  and  _107
REMARK   47  A    between atoms: _109  and  _111
REMARK   48  A    between atoms: _111  and  _112
REMARK   49  A    between atoms: _111  and  _114
REMARK   50  A    between atoms: _114  and  _115
REMARK   51  A    between atoms: _118  and  _120
REMARK   52  A    between atoms: _120  and  _121
REMARK   53  A    between atoms: _123  and  _125
REMARK   54  A    between atoms: _125  and  _126
REMARK   55  A    between atoms: _128  and  _130
REMARK   56  A    between atoms: _130  and  _131
REMARK   57  A    between atoms: _130  and  _133
REMARK   58  A    between atoms: _133  and  _134
REMARK   59  A    between atoms: _137  and  _139
REMARK   60  A    between atoms: _139  and  _140
REMARK   61  A    between atoms: _142  and  _144
REMARK   62  A    between atoms: _144  and  _145
REMARK   63  A    between atoms: _147  and  _149
REMARK   64  A    between atoms: _149  and  _150
REMARK   65  A    between atoms: _149  and  _152
REMARK   66  A    between atoms: _152  and  _153
REMARK   67  A    between atoms: _159  and  _161
REMARK   68  A    between atoms: _161  and  _162
REMARK   69  A    between atoms: _161  and  _164
REMARK   70  A    between atoms: _164  and  _165
REMARK   71  A    between atoms: _168  and  _170
REMARK   72  A    between atoms: _170  and  _171
REMARK   73  A    between atoms: _170  and  _173
REMARK   74  A    between atoms: _173  and  _174
REMARK   75  A    between atoms: _177  and  _179
REMARK   76  A    between atoms: _179  and  _180
REMARK   77  A    between atoms: _179  and  _182
REMARK   78  A    between atoms: _182  and  _183
REMARK   79  A    between atoms: _187  and  _188
REMARK   80  A    between atoms: _193  and  _195
REMARK   81  A    between atoms: _195  and  _196
REMARK   82  A    between atoms: _195  and  _198
REMARK   83  A    between atoms: _201  and  _203
REMARK   84  A    between atoms: _203  and  _204
REMARK   85  A    between atoms: _203  and  _206
REMARK   86  A    between atoms: _206  and  _207
REMARK   87  A    between atoms: _212  and  _214
REMARK   88  A    between atoms: _214  and  _215
REMARK   89  A    between atoms: _214  and  _217
REMARK   90  A    between atoms: _217  and  _218
REMARK   91  A    between atoms: _221  and  _223
REMARK   92  A    between atoms: _223  and  _224
REMARK   93  A    between atoms: _223  and  _226
REMARK   94  A    between atoms: _226  and  _227
REMARK   95  A    between atoms: _230  and  _232
REMARK   96  A    between atoms: _232  and  _233
REMARK   97  A    between atoms: _235  and  _237
REMARK   98  A    between atoms: _237  and  _238
REMARK   99  A    between atoms: _237  and  _240
REMARK  100  A    between atoms: _240  and  _241
REMARK  101  A    between atoms: _241  and  _242
REMARK  102  A    between atoms: _242  and  _243
REMARK  103  A    between atoms: _252  and  _254
REMARK  104  A    between atoms: _254  and  _255
REMARK  105  A    between atoms: _254  and  _257
REMARK  106  A    between atoms: _257  and  _258
REMARK  107  A    between atoms: _258  and  _259
REMARK  108  A    between atoms: _259  and  _260
REMARK  109  A    between atoms: _269  and  _271
REMARK  110  A    between atoms: _271  and  _272
REMARK  111  A    between atoms: _271  and  _274
REMARK  112  A    between atoms: _274  and  _275
REMARK  113  A    between atoms: _278  and  _280
REMARK  114  A    between atoms: _280  and  _281
REMARK  115  A    between atoms: _280  and  _283
REMARK  116  A    between atoms: _283  and  _284
REMARK  117  A    between atoms: _287  and  _289
REMARK  118  A    between atoms: _289  and  _290
REMARK  119  A    between atoms: _289  and  _292
REMARK  120  A    between atoms: _292  and  _293
REMARK  121  A    between atoms: _296  and  _298
REMARK  122  A    between atoms: _298  and  _299
REMARK  123  A    between atoms: _298  and  _301
REMARK  124  A    between atoms: _301  and  _302
REMARK  125  A    between atoms: _305  and  _307
REMARK  126  A    between atoms: _307  and  _308
REMARK  127  A    between atoms: _307  and  _310
REMARK  128  A    between atoms: _310  and  _311
REMARK  129  A    between atoms: _314  and  _316
REMARK  130  A    between atoms: _316  and  _317
REMARK  131  A    between atoms: _319  and  _321
REMARK  132  A    between atoms: _321  and  _322
REMARK  133  A    between atoms: _325  and  _327
REMARK  134  A    between atoms: _327  and  _328
REMARK  135  A    between atoms: _327  and  _330
REMARK  136  A    between atoms: _330  and  _331
REMARK  137  A    between atoms: _334  and  _336
REMARK  138  A    between atoms: _336  and  _337
REMARK  139  A    between atoms: _336  and  _339
REMARK  140  A    between atoms: _339  and  _340
REMARK  141  A    between atoms: _343  and  _345
REMARK  142  A    between atoms: _345  and  _346
REMARK  143  A    between atoms: _345  and  _348
REMARK  144  A    between atoms: _348  and  _349
REMARK  145  A    between atoms: _352  and  _354
REMARK  146  A    between atoms: _354  and  _355
REMARK  147  A    between atoms: _354  and  _357
REMARK  148  A    between atoms: _360  and  _362
REMARK  149  A    between atoms: _362  and  _363
REMARK  150  A    between atoms: _362  and  _365
REMARK  151  A    between atoms: _365  and  _366
REMARK  152  A    between atoms: _366  and  _367
REMARK  153  A    between atoms: _367  and  _368
REMARK  154  A    between atoms: _368  and  _369
REMARK  155  A    between atoms: _373  and  _375
REMARK  156  A    between atoms: _375  and  _376
REMARK  157  A    between atoms: _375  and  _378
REMARK  158  A    between atoms: _378  and  _379
REMARK  159  A    between atoms: _379  and  _380
REMARK  160  A    between atoms: _382  and  _384
REMARK  161  A    between atoms: _384  and  _385
REMARK  162  A    between atoms: _384  and  _387
REMARK  163  A    between atoms: _387  and  _388
REMARK  164  A    between atoms: _391  and  _393
REMARK  165  A    between atoms: _393  and  _394
REMARK  166  A    between atoms: _396  and  _398
REMARK  167  A    between atoms: _398  and  _399
REMARK  168  A    between atoms: _401  and  _403
REMARK  169  A    between atoms: _403  and  _404
REMARK  170  A    between atoms: _403  and  _406
REMARK  171  A    between atoms: _406  and  _407
REMARK  172  A    between atoms: _410  and  _412
REMARK  173  A    between atoms: _412  and  _413
REMARK  174  A    between atoms: _415  and  _417
REMARK  175  A    between atoms: _417  and  _418
REMARK  176  A    between atoms: _420  and  _422
REMARK  177  A    between atoms: _422  and  _423
REMARK  178  A    between atoms: _422  and  _425
REMARK  179  A    between atoms: _425  and  _426
REMARK  180  A    between atoms: _432  and  _434
REMARK  181  A    between atoms: _434  and  _435
REMARK  182  A    between atoms: _434  and  _437
REMARK  183  A    between atoms: _437  and  _438
REMARK  184  A    between atoms: _441  and  _443
REMARK  185  A    between atoms: _443  and  _444
REMARK  186  A    between atoms: _443  and  _446
REMARK  187  A    between atoms: _446  and  _447
REMARK  188  A    between atoms: _450  and  _452
REMARK  189  A    between atoms: _452  and  _453
REMARK  190  A    between atoms: _452  and  _455
REMARK  191  A    between atoms: _455  and  _456
REMARK  192  A    between atoms: _460  and  _461
REMARK  193  A    between atoms: _466  and  _468
REMARK  194  A    between atoms: _468  and  _469
REMARK  195  A    between atoms: _468  and  _471
REMARK  196  A    between atoms: _474  and  _476
REMARK  197  A    between atoms: _476  and  _477
REMARK  198  A    between atoms: _476  and  _479
REMARK  199  A    between atoms: _479  and  _480
REMARK  200  A    between atoms: _485  and  _487
REMARK  201  A    between atoms: _487  and  _488
REMARK  202  A    between atoms: _487  and  _490
REMARK  203  A    between atoms: _490  and  _491
REMARK  204  A    between atoms: _494  and  _496
REMARK  205  A    between atoms: _496  and  _497
REMARK  206  A    between atoms: _496  and  _499
REMARK  207  A    between atoms: _499  and  _500
REMARK  208  A    between atoms: _503  and  _505
REMARK  209  A    between atoms: _505  and  _506
REMARK  210  A    between atoms: _508  and  _510
REMARK  211  A    between atoms: _510  and  _511
REMARK  212  A    between atoms: _510  and  _513
REMARK  213  A    between atoms: _513  and  _514
REMARK  214  A    between atoms: _514  and  _515
REMARK  215  A    between atoms: _515  and  _516
REMARK                            x       y       z     vdW  Elec       q    Type
REMARK                         _______ _______ _______ _____ _____    ______ ____
ROOT
ATOM      1  C   GLY A   5       5.694  -1.816  20.411  0.00  0.00    +0.243 C 
ATOM      2  N   ALA A   6       6.977  -1.548  20.624  0.00  0.00    -0.297 N 
ATOM      3  H   ALA A   6       7.231  -0.670  21.120  0.00  0.00    +0.150 HD
ATOM      4  O   GLY A   5       5.309  -2.825  19.813  0.00  0.00    -0.273 OA
ENDROOT
BRANCH   2   5
ATOM      5  CA  ALA A   6       8.049  -2.449  20.184  0.00  0.00    +0.149 C 
ATOM      6  CB  ALA A   6       9.148  -1.663  19.504  0.00  0.00    +0.031 C 
BRANCH   5   7
ATOM      7  C   ALA A   6       8.630  -3.220  21.354  0.00  0.00    +0.241 C 
ATOM      8  O   ALA A   6       9.085  -2.624  22.334  0.00  0.00    -0.273 OA
ATOM      9  N   ASP A   7       8.625  -4.545  21.247  0.00  0.00    -0.297 N 
ATOM     10  H   ASP A   7       8.213  -4.989  20.401  0.00  0.00    +0.150 HD
BRANCH   9  11
ATOM     11  CA  ASP A   7       9.193  -5.393  22.306  0.00  0.00    +0.160 C 
BRANCH  11  12
ATOM     12  C   ASP A   7      10.710  -5.281  22.275  0.00  0.00    +0.241 C 
ATOM     13  O   ASP A   7      11.370  -5.309  23.316  0.00  0.00    -0.273 OA
ATOM     14  N   ASP A   8      11.245  -5.155  21.063  0.00  0.00    -0.297 N 
ATOM     15  H   ASP A   8      10.610  -5.103  20.241  0.00  0.00    +0.150 HD
BRANCH  14  16
ATOM     16  CA  ASP A   8      12.693  -5.086  20.838  0.00  0.00    +0.160 C 
BRANCH  16  17
ATOM     17  C   ASP A   8      13.158  -3.790  20.202  0.00  0.00    +0.241 C 
ATOM     18  N   THR A   9      14.476  -3.629  20.164  0.00  0.00    -0.295 N 
ATOM     19  H   THR A   9      15.077  -4.369  20.579  0.00  0.00    +0.150 HD
ATOM     20  O   ASP A   8      12.359  -2.996  19.714  0.00  0.00    -0.273 OA
BRANCH  18  21
ATOM     21  CA  THR A   9      15.125  -2.457  19.565  0.00  0.00    +0.176 C 
BRANCH  21  22
ATOM     22  C   THR A   9      15.682  -2.904  18.222  0.00  0.00    +0.243 C 
ATOM     23  O   THR A   9      16.419  -3.887  18.138  0.00  0.00    -0.273 OA
ATOM     24  N   VAL A  10      15.277  -2.209  17.165  0.00  0.00    -0.298 N 
ATOM     25  H   VAL A  10      14.632  -1.405  17.305  0.00  0.00    +0.150 HD
BRANCH  24  26
ATOM     26  CA  VAL A  10      15.715  -2.545  15.805  0.00  0.00    +0.137 C 
BRANCH  26  27
ATOM     27  CB  VAL A  10      14.511  -2.897  14.904  0.00  0.00    +0.026 C 
ATOM     28  CG2 VAL A  10      13.582  -3.857  15.628  0.00  0.00    +0.002 C 
ATOM     29  CG1 VAL A  10      14.993  -3.511  13.586  0.00  0.00    +0.002 C 
ENDBRANCH  26  27
BRANCH  26  30
ATOM     30  C   VAL A  10      16.477  -1.383  15.198  0.00  0.00    +0.227 C 
ATOM     31  O   VAL A  10      15.949  -0.283  15.059  0.00  0.00    -0.286 OA
ENDBRANCH  26  30
ENDBRANCH  24  26
ENDBRANCH  21  22
BRANCH  21  32
ATOM     32  CB  THR A   9      16.237  -1.938  20.481  0.00  0.00    +0.137 C 
ATOM     33  CG2 THR A   9      17.104  -0.908  19.781  0.00  0.00    +0.034 C 
BRANCH  32  34
ATOM     34  OG1 THR A   9      15.633  -1.351  21.638  0.00  0.00    -0.382 OA
ATOM     35  HG1 THR A   9      15.096  -2.035  22.111  0.00  0.00    +0.210 HD
ENDBRANCH  32  34
ENDBRANCH  21  32
ENDBRANCH  18  21
ENDBRANCH  16  17
BRANCH  16  36
ATOM     36  CB  ASP A   8      13.123  -6.236  19.921  0.00  0.00    +0.143 C 
BRANCH  36  37
ATOM     37  CG  ASP A   8      12.660  -7.583  20.421  0.00  0.00    +0.367 C 
ATOM     38  OD2 ASP A   8      13.245  -8.088  21.397  0.00  0.00    -0.246 OA
ATOM     39  OD1 ASP A   8      11.703  -8.128  19.839  0.00  0.00    -0.246 OA
ENDBRANCH  36  37
ENDBRANCH  16  36
ENDBRANCH  14  16
ENDBRANCH  11  12
BRANCH  11  40
ATOM     40  CB  ASP A   7       8.834  -6.871  22.081  0.00  0.00    +0.143 C 
BRANCH  40  41
ATOM     41  CG  ASP A   7       7.375  -7.179  22.337  0.00  0.00    +0.367 C 
ATOM     42  OD2 ASP A   7       6.675  -6.389  23.002  0.00  0.00    -0.246 OA
ATOM     43  OD1 ASP A   7       6.932  -8.246  21.874  0.00  0.00    -0.246 OA
ENDBRANCH  40  41
ENDBRANCH  11  40
ENDBRANCH   9  11
ENDBRANCH   5   7
ENDBRANCH   2   5
BRANCH   1  44
ATOM     44  CA  GLY A   5       4.698  -0.790  20.928  0.00  0.00    +0.176 C 
BRANCH  44  47
ATOM     45  C   THR A   4       5.576   0.460  22.811  0.00  0.00    +0.243 C 
ATOM     46  O   THR A   4       5.236  -0.418  23.601  0.00  0.00    -0.273 OA
ATOM     47  N   GLY A   5       5.360   0.371  21.503  0.00  0.00    -0.295 N 
ATOM     48  H   GLY A   5       5.669   1.144  20.880  0.00  0.00    +0.150 HD
BRANCH  45  49
ATOM     49  CA  THR A   4       6.286   1.726  23.299  0.00  0.00    +0.176 C 
BRANCH  49  51
ATOM     50  C   ASP A   3       7.923   2.097  21.510  0.00  0.00    +0.241 C 
ATOM     51  N   THR A   4       6.827   2.482  22.156  0.00  0.00    -0.295 N 
ATOM     52  H   THR A   4       6.336   3.344  21.845  0.00  0.00    +0.150 HD
ATOM     53  O   ASP A   3       8.555   1.089  21.808  0.00  0.00    -0.273 OA
BRANCH  50  54
ATOM     54  CA  ASP A   3       8.348   2.958  20.322  0.00  0.00    +0.160 C 
BRANCH  54  56
ATOM     55  C   LEU A   2       9.421   5.136  20.587  0.00  0.00    +0.241 C 
ATOM     56  N   ASP A   3       9.507   3.811  20.585  0.00  0.00    -0.297 N 
ATOM     57  H   ASP A   3      10.427   3.366  20.776  0.00  0.00    +0.150 HD
ATOM     58  O   LEU A   2       8.365   5.747  20.406  0.00  0.00    -0.273 OA
BRANCH  55  59
ATOM     59  CA  LEU A   2      10.738   5.875  20.792  0.00  0.00    +0.149 C 
BRANCH  59  61
ATOM     60  C   LEU A   1      11.645   5.775  18.526  0.00  0.00    +0.238 C 
ATOM     61  N   LEU A   2      11.032   6.473  19.480  0.00  0.00    -0.297 N 
ATOM     62  H   LEU A   2      10.756   7.458  19.295  0.00  0.00    +0.150 HD
ATOM     63  O   LEU A   1      12.061   4.633  18.705  0.00  0.00    -0.274 OA
BRANCH  60  64
ATOM     64  CA  LEU A   1      11.867   6.477  17.184  0.00  0.00    +0.145 C 
BRANCH  64  65
ATOM     65  N   LEU A   1      13.256   6.322  16.742  0.00  0.00    -0.238 NA
ATOM     66  H   LEU A   1      13.495   5.491  16.164  0.00  0.00    +0.142 HD
ENDBRANCH  64  65
BRANCH  64  67
ATOM     67  CB  LEU A   1      10.964   5.850  16.124  0.00  0.00    +0.026 C 
BRANCH  67  68
ATOM     68  CG  LEU A   1       9.448   5.841  16.258  0.00  0.00    +0.002 C 
ATOM     69  CD2 LEU A   1       8.898   7.241  16.121  0.00  0.00    +0.000 C 
ATOM     70  CD1 LEU A   1       8.885   4.962  15.158  0.00  0.00    +0.000 C 
ENDBRANCH  67  68
ENDBRANCH  64  67
ENDBRANCH  60  64
ENDBRANCH  59  61
BRANCH  59  71
ATOM     71  CB  LEU A   2      10.621   6.948  21.878  0.00  0.00    +0.029 C 
BRANCH  71  72
ATOM     72  CG  LEU A   2      11.886   7.789  22.098  0.00  0.00    +0.002 C 
ATOM     73  CD2 LEU A   2      11.649   8.753  23.244  0.00  0.00    +0.000 C 
ATOM     74  CD1 LEU A   2      13.079   6.895  22.398  0.00  0.00    +0.000 C 
ENDBRANCH  71  72
ENDBRANCH  59  71
ENDBRANCH  55  59
ENDBRANCH  54  56
BRANCH  54  75
ATOM     75  CB  ASP A   3       8.697   2.083  19.108  0.00  0.00    +0.143 C 
BRANCH  75  76
ATOM     76  CG  ASP A   3       7.516   1.306  18.554  0.00  0.00    +0.367 C 
ATOM     77  OD2 ASP A   3       6.399   1.354  19.102  0.00  0.00    -0.246 OA
ATOM     78  OD1 ASP A   3       7.727   0.620  17.542  0.00  0.00    -0.246 OA
ENDBRANCH  75  76
ENDBRANCH  54  75
ENDBRANCH  50  54
ENDBRANCH  49  51
BRANCH  49  79
ATOM     79  CB  THR A   4       5.299   2.579  24.121  0.00  0.00    +0.137 C 
ATOM     80  CG2 THR A   4       6.008   3.788  24.725  0.00  0.00    +0.034 C 
BRANCH  79  81
ATOM     81  OG1 THR A   4       4.240   3.035  23.275  0.00  0.00    -0.382 OA
ATOM     82  HG1 THR A   4       3.764   2.255  22.894  0.00  0.00    +0.210 HD
ENDBRANCH  79  81
ENDBRANCH  49  79
ENDBRANCH  45  49
ENDBRANCH  44  47
ENDBRANCH   1  44
TORSDOF 35
REMARK  Name = ../refined-set-2016/1b6k/1b6k_pocket.pdb
REMARK  215 active torsions:
REMARK  status: ('A' for Active; 'I' for Inactive)
REMARK    1  A    between atoms: _1  and  _3
REMARK    2  A    between atoms: _3  and  _4
REMARK    3  A    between atoms: _3  and  _6
REMARK    4  A    between atoms: _6  and  _7
REMARK    5  A    between atoms: _7  and  _8
REMARK    6  A    between atoms: _8  and  _9
REMARK    7  A    between atoms: _18  and  _20
REMARK    8  A    between atoms: _20  and  _21
REMARK    9  A    between atoms: _20  and  _23
REMARK   10  A    between atoms: _23  and  _24
REMARK   11  A    between atoms: _27  and  _29
REMARK   12  A    between atoms: _29  and  _30
REMARK   13  A    between atoms: _29  and  _32
REMARK   14  A    between atoms: _32  and  _33
REMARK   15  A    between atoms: _36  and  _38
REMARK   16  A    between atoms: _38  and  _39
REMARK   17  A    between atoms: _38  and  _41
REMARK   18  A    between atoms: _41  and  _42
REMARK   19  A    between atoms: _45  and  _47
REMARK   20  A    between atoms: _47  and  _48
REMARK   21  A    between atoms: _47  and  _50
REMARK   22  A    between atoms: _50  and  _51
REMARK   23  A    between atoms: _54  and  _56
REMARK   24  A    between atoms: _56  and  _57
REMARK   25  A    between atoms: _59  and  _61
REMARK   26  A    between atoms: _61  and  _62
REMARK   27  A    between atoms: _65  and  _67
REMARK   28  A    between atoms: _67  and  _68
REMARK   29  A    between atoms: _67  and  _70
REMARK   30  A    between atoms: _70  and  _71
REMARK   31  A    between atoms: _74  and  _76
REMARK   32  A    between atoms: _76  and  _77
REMARK   33  A    between atoms: _76  and  _79
REMARK   34  A    between atoms: _79  and  _80
REMARK   35  A    between atoms: _83  and  _85
REMARK   36  A    between atoms: _85  and  _86
REMARK   37  A    between atoms: _85  and  _88
REMARK   38  A    between atoms: _88  and  _89
REMARK   39  A    between atoms: _92  and  _94
REMARK   40  A    between atoms: _94  and  _95
REMARK   41  A    between atoms: _94  and  _97
REMARK   42  A    between atoms: _100  and  _102
REMARK   43  A    between atoms: _102  and  _103
REMARK   44  A    between atoms: _102  and  _105
REMARK   45  A    between atoms: _105  and  _106
REMARK   46  A    between atoms: _106  and  _107
REMARK   47  A    between atoms: _109  and  _111
REMARK   48  A    between atoms: _111  and  _112
REMARK   49  A    between atoms: _111  and  _114
REMARK   50  A    between atoms: _114  and  _115
REMARK   51  A    between atoms: _118  and  _120
REMARK   52  A    between atoms: _120  and  _121
REMARK   53  A    between atoms: _123  and  _125
REMARK   54  A    between atoms: _125  and  _126
REMARK   55  A    between atoms: _128  and  _130
REMARK   56  A    between atoms: _130  and  _131
REMARK   57  A    between atoms: _130  and  _133
REMARK   58  A    between atoms: _133  and  _134
REMARK   59  A    between atoms: _137  and  _139
REMARK   60  A    between atoms: _139  and  _140
REMARK   61  A    between atoms: _142  and  _144
REMARK   62  A    between atoms: _144  and  _145
REMARK   63  A    between atoms: _147  and  _149
REMARK   64  A    between atoms: _149  and  _150
REMARK   65  A    between atoms: _149  and  _152
REMARK   66  A    between atoms: _152  and  _153
REMARK   67  A    between atoms: _159  and  _161
REMARK   68  A    between atoms: _161  and  _162
REMARK   69  A    between atoms: _161  and  _164
REMARK   70  A    between atoms: _164  and  _165
REMARK   71  A    between atoms: _168  and  _170
REMARK   72  A    between atoms: _170  and  _171
REMARK   73  A    between atoms: _170  and  _173
REMARK   74  A    between atoms: _173  and  _174
REMARK   75  A    between atoms: _177  and  _179
REMARK   76  A    between atoms: _179  and  _180
REMARK   77  A    between atoms: _179  and  _182
REMARK   78  A    between atoms: _182  and  _183
REMARK   79  A    between atoms: _187  and  _188
REMARK   80  A    between atoms: _193  and  _195
REMARK   81  A    between atoms: _195  and  _196
REMARK   82  A    between atoms: _195  and  _198
REMARK   83  A    between atoms: _201  and  _203
REMARK   84  A    between atoms: _203  and  _204
REMARK   85  A    between atoms: _203  and  _206
REMARK   86  A    between atoms: _206  and  _207
REMARK   87  A    between atoms: _212  and  _214
REMARK   88  A    between atoms: _214  and  _215
REMARK   89  A    between atoms: _214  and  _217
REMARK   90  A    between atoms: _217  and  _218
REMARK   91  A    between atoms: _221  and  _223
REMARK   92  A    between atoms: _223  and  _224
REMARK   93  A    between atoms: _223  and  _226
REMARK   94  A    between atoms: _226  and  _227
REMARK   95  A    between atoms: _230  and  _232
REMARK   96  A    between atoms: _232  and  _233
REMARK   97  A    between atoms: _235  and  _237
REMARK   98  A    between atoms: _237  and  _238
REMARK   99  A    between atoms: _237  and  _240
REMARK  100  A    between atoms: _240  and  _241
REMARK  101  A    between atoms: _241  and  _242
REMARK  102  A    between atoms: _242  and  _243
REMARK  103  A    between atoms: _252  and  _254
REMARK  104  A    between atoms: _254  and  _255
REMARK  105  A    between atoms: _254  and  _257
REMARK  106  A    between atoms: _257  and  _258
REMARK  107  A    between atoms: _258  and  _259
REMARK  108  A    between atoms: _259  and  _260
REMARK  109  A    between atoms: _269  and  _271
REMARK  110  A    between atoms: _271  and  _272
REMARK  111  A    between atoms: _271  and  _274
REMARK  112  A    between atoms: _274  and  _275
REMARK  113  A    between atoms: _278  and  _280
REMARK  114  A    between atoms: _280  and  _281
REMARK  115  A    between atoms: _280  and  _283
REMARK  116  A    between atoms: _283  and  _284
REMARK  117  A    between atoms: _287  and  _289
REMARK  118  A    between atoms: _289  and  _290
REMARK  119  A    between atoms: _289  and  _292
REMARK  120  A    between atoms: _292  and  _293
REMARK  121  A    between atoms: _296  and  _298
REMARK  122  A    between atoms: _298  and  _299
REMARK  123  A    between atoms: _298  and  _301
REMARK  124  A    between atoms: _301  and  _302
REMARK  125  A    between atoms: _305  and  _307
REMARK  126  A    between atoms: _307  and  _308
REMARK  127  A    between atoms: _307  and  _310
REMARK  128  A    between atoms: _310  and  _311
REMARK  129  A    between atoms: _314  and  _316
REMARK  130  A    between atoms: _316  and  _317
REMARK  131  A    between atoms: _319  and  _321
REMARK  132  A    between atoms: _321  and  _322
REMARK  133  A    between atoms: _325  and  _327
REMARK  134  A    between atoms: _327  and  _328
REMARK  135  A    between atoms: _327  and  _330
REMARK  136  A    between atoms: _330  and  _331
REMARK  137  A    between atoms: _334  and  _336
REMARK  138  A    between atoms: _336  and  _337
REMARK  139  A    between atoms: _336  and  _339
REMARK  140  A    between atoms: _339  and  _340
REMARK  141  A    between atoms: _343  and  _345
REMARK  142  A    between atoms: _345  and  _346
REMARK  143  A    between atoms: _345  and  _348
REMARK  144  A    between atoms: _348  and  _349
REMARK  145  A    between atoms: _352  and  _354
REMARK  146  A    between atoms: _354  and  _355
REMARK  147  A    between atoms: _354  and  _357
REMARK  148  A    between atoms: _360  and  _362
REMARK  149  A    between atoms: _362  and  _363
REMARK  150  A    between atoms: _362  and  _365
REMARK  151  A    between atoms: _365  and  _366
REMARK  152  A    between atoms: _366  and  _367
REMARK  153  A    between atoms: _367  and  _368
REMARK  154  A    between atoms: _368  and  _369
REMARK  155  A    between atoms: _373  and  _375
REMARK  156  A    between atoms: _375  and  _376
REMARK  157  A    between atoms: _375  and  _378
REMARK  158  A    between atoms: _378  and  _379
REMARK  159  A    between atoms: _379  and  _380
REMARK  160  A    between atoms: _382  and  _384
REMARK  161  A    between atoms: _384  and  _385
REMARK  162  A    between atoms: _384  and  _387
REMARK  163  A    between atoms: _387  and  _388
REMARK  164  A    between atoms: _391  and  _393
REMARK  165  A    between atoms: _393  and  _394
REMARK  166  A    between atoms: _396  and  _398
REMARK  167  A    between atoms: _398  and  _399
REMARK  168  A    between atoms: _401  and  _403
REMARK  169  A    between atoms: _403  and  _404
REMARK  170  A    between atoms: _403  and  _406
REMARK  171  A    between atoms: _406  and  _407
REMARK  172  A    between atoms: _410  and  _412
REMARK  173  A    between atoms: _412  and  _413
REMARK  174  A    between atoms: _415  and  _417
REMARK  175  A    between atoms: _417  and  _418
REMARK  176  A    between atoms: _420  and  _422
REMARK  177  A    between atoms: _422  and  _423
REMARK  178  A    between atoms: _422  and  _425
REMARK  179  A    between atoms: _425  and  _426
REMARK  180  A    between atoms: _432  and  _434
REMARK  181  A    between atoms: _434  and  _435
REMARK  182  A    between atoms: _434  and  _437
REMARK  183  A    between atoms: _437  and  _438
REMARK  184  A    between atoms: _441  and  _443
REMARK  185  A    between atoms: _443  and  _444
REMARK  186  A    between atoms: _443  and  _446
REMARK  187  A    between atoms: _446  and  _447
REMARK  188  A    between atoms: _450  and  _452
REMARK  189  A    between atoms: _452  and  _453
REMARK  190  A    between atoms: _452  and  _455
REMARK  191  A    between atoms: _455  and  _456
REMARK  192  A    between atoms: _460  and  _461
REMARK  193  A    between atoms: _466  and  _468
REMARK  194  A    between atoms: _468  and  _469
REMARK  195  A    between atoms: _468  and  _471
REMARK  196  A    between atoms: _474  and  _476
REMARK  197  A    between atoms: _476  and  _477
REMARK  198  A    between atoms: _476  and  _479
REMARK  199  A    between atoms: _479  and  _480
REMARK  200  A    between atoms: _485  and  _487
REMARK  201  A    between atoms: _487  and  _488
REMARK  202  A    between atoms: _487  and  _490
REMARK  203  A    between atoms: _490  and  _491
REMARK  204  A    between atoms: _494  and  _496
REMARK  205  A    between atoms: _496  and  _497
REMARK  206  A    between atoms: _496  and  _499
REMARK  207  A    between atoms: _499  and  _500
REMARK  208  A    between atoms: _503  and  _505
REMARK  209  A    between atoms: _505  and  _506
REMARK  210  A    between atoms: _508  and  _510
REMARK  211  A    between atoms: _510  and  _511
REMARK  212  A    between atoms: _510  and  _513
REMARK  213  A    between atoms: _513  and  _514
REMARK  214  A    between atoms: _514  and  _515
REMARK  215  A    between atoms: _515  and  _516
REMARK                            x       y       z     vdW  Elec       q    Type
REMARK                         _______ _______ _______ _____ _____    ______ ____
ROOT
ATOM      1  C   GLY A   5       4.507  -6.099  11.858  0.00  0.00    +0.243 C 
ATOM      2  O   GLY A   5       3.936  -7.187  11.908  0.00  0.00    -0.273 OA
ATOM      3  N   ILE A   6       3.931  -5.008  11.372  0.00  0.00    -0.297 N 
ATOM      4  H   ILE A   6       4.478  -4.127  11.299  0.00  0.00    +0.150 HD
ENDROOT
BRANCH   3   5
ATOM      5  CA  ILE A   6       2.530  -5.030  10.936  0.00  0.00    +0.149 C 
BRANCH   5   6
ATOM      6  C   ILE A   6       2.302  -5.839   9.645  0.00  0.00    +0.241 C 
ATOM      7  O   ILE A   6       1.291  -6.536   9.518  0.00  0.00    -0.273 OA
ATOM      8  N   GLY A   7       3.263  -5.794   8.724  0.00  0.00    -0.295 N 
ATOM      9  H   GLY A   7       4.132  -5.253   8.907  0.00  0.00    +0.150 HD
BRANCH   8  10
ATOM     10  CA  GLY A   7       3.100  -6.500   7.461  0.00  0.00    +0.176 C 
BRANCH  10  11
ATOM     11  C   GLY A   7       3.786  -7.842   7.294  0.00  0.00    +0.243 C 
ATOM     12  N   GLY A   8       4.480  -8.310   8.328  0.00  0.00    -0.295 N 
ATOM     13  H   GLY A   8       4.530  -7.757   9.207  0.00  0.00    +0.150 HD
ATOM     14  O   GLY A   7       3.693  -8.443   6.223  0.00  0.00    -0.273 OA
BRANCH  12  15
ATOM     15  CA  GLY A   8       5.168  -9.586   8.241  0.00  0.00    +0.176 C 
BRANCH  15  16
ATOM     16  C   GLY A   8       6.444  -9.634   9.055  0.00  0.00    +0.243 C 
ATOM     17  O   GLY A   8       6.623  -8.843   9.972  0.00  0.00    -0.273 OA
ATOM     18  N   PHE A   9       7.335 -10.564   8.715  0.00  0.00    -0.297 N 
ATOM     19  H   PHE A   9       7.121 -11.194   7.916  0.00  0.00    +0.150 HD
BRANCH  18  20
ATOM     20  CA  PHE A   9       8.614 -10.733   9.429  0.00  0.00    +0.153 C 
BRANCH  20  21
ATOM     21  C   PHE A   9       9.816 -10.341   8.580  0.00  0.00    +0.241 C 
ATOM     22  N   ILE A  10      10.906  -9.980   9.248  0.00  0.00    -0.298 N 
ATOM     23  H   ILE A  10      10.864  -9.939  10.286  0.00  0.00    +0.150 HD
ATOM     24  O   PHE A   9       9.758 -10.369   7.354  0.00  0.00    -0.273 OA
BRANCH  22  25
ATOM     25  CA  ILE A  10      12.169  -9.636   8.580  0.00  0.00    +0.137 C 
BRANCH  25  26
ATOM     26  C   ILE A  10      13.284 -10.353   9.327  0.00  0.00    +0.227 C 
ATOM     27  O   ILE A  10      13.168 -10.619  10.526  0.00  0.00    -0.286 OA
ENDBRANCH  25  26
BRANCH  25  28
ATOM     28  CB  ILE A  10      12.491  -8.112   8.586  0.00  0.00    +0.026 C 
ATOM     29  CG2 ILE A  10      11.494  -7.353   7.729  0.00  0.00    +0.002 C 
BRANCH  28  30
ATOM     30  CG1 ILE A  10      12.567  -7.572  10.014  0.00  0.00    +0.002 C 
ATOM     31  CD1 ILE A  10      13.216  -6.195  10.106  0.00  0.00    +0.000 C 
ENDBRANCH  28  30
ENDBRANCH  25  28
ENDBRANCH  22  25
ENDBRANCH  20  21
BRANCH  20  32
ATOM     32  CB  PHE A   9       8.806 -12.196   9.861  0.00  0.00    +0.055 C 
BRANCH  32  33
ATOM     33  CG  PHE A   9       7.874 -12.649  10.949  0.00  0.00    -0.020 A 
ATOM     34  CD2 PHE A   9       8.361 -12.936  12.216  0.00  0.00    -0.004 A 
ATOM     35  CE2 PHE A   9       7.509 -13.359  13.231  0.00  0.00    -0.000 A 
ATOM     36  CZ  PHE A   9       6.158 -13.501  12.979  0.00  0.00    -0.000 A 
ATOM     37  CE1 PHE A   9       5.657 -13.217  11.711  0.00  0.00    -0.000 A 
ATOM     38  CD1 PHE A   9       6.514 -12.796  10.707  0.00  0.00    -0.004 A 
ENDBRANCH  32  33
ENDBRANCH  20  32
ENDBRANCH  18  20
ENDBRANCH  15  16
ENDBRANCH  12  15
ENDBRANCH  10  11
ENDBRANCH   8  10
ENDBRANCH   5   6
BRANCH   5  39
ATOM     39  CB  ILE A   6       1.974  -3.580  10.782  0.00  0.00    +0.027 C 
ATOM     40  CG2 ILE A   6       2.645  -2.860   9.635  0.00  0.00    +0.002 C 
BRANCH  39  41
ATOM     41  CG1 ILE A   6       0.466  -3.596  10.561  0.00  0.00    +0.002 C 
ATOM     42  CD1 ILE A   6      -0.315  -3.285  11.796  0.00  0.00    +0.000 C 
ENDBRANCH  39  41
ENDBRANCH   5  39
ENDBRANCH   3   5
BRANCH   1  43
ATOM     43  CA  GLY A   5       5.949  -5.981  12.295  0.00  0.00    +0.176 C 
BRANCH  43  46
ATOM     44  C   GLY A   4       6.892  -7.988  13.270  0.00  0.00    +0.243 C 
ATOM     45  O   GLY A   4       6.913  -7.511  14.405  0.00  0.00    -0.273 OA
ATOM     46  N   GLY A   5       6.487  -7.321  12.199  0.00  0.00    -0.295 N 
ATOM     47  H   GLY A   5       6.558  -7.772  11.265  0.00  0.00    +0.150 HD
BRANCH  44  48
ATOM     48  CA  GLY A   4       7.379  -9.393  12.996  0.00  0.00    +0.176 C 
BRANCH  48  50
ATOM     49  C   ILE A   3       9.711  -9.904  13.229  0.00  0.00    +0.241 C 
ATOM     50  N   GLY A   4       8.516  -9.805  13.788  0.00  0.00    -0.295 N 
ATOM     51  H   GLY A   4       8.395 -10.024  14.797  0.00  0.00    +0.150 HD
ATOM     52  O   ILE A   3       9.917  -9.661  12.043  0.00  0.00    -0.273 OA
BRANCH  49  53
ATOM     53  CA  ILE A   3      10.832 -10.374  14.137  0.00  0.00    +0.149 C 
BRANCH  53  56
ATOM     54  C   MET A   2      12.086 -12.400  13.644  0.00  0.00    +0.241 C 
ATOM     55  O   MET A   2      11.564 -13.000  14.584  0.00  0.00    -0.273 OA
ATOM     56  N   ILE A   3      11.825 -11.128  13.361  0.00  0.00    -0.297 N 
ATOM     57  H   ILE A   3      12.330 -10.661  12.581  0.00  0.00    +0.150 HD
BRANCH  54  58
ATOM     58  CA  MET A   2      13.114 -13.091  12.772  0.00  0.00    +0.149 C 
BRANCH  58  60
ATOM     59  C   LYS A   1      15.447 -13.350  13.449  0.00  0.00    +0.238 C 
ATOM     60  N   MET A   2      14.165 -13.636  13.642  0.00  0.00    -0.297 N 
ATOM     61  H   MET A   2      13.898 -14.262  14.429  0.00  0.00    +0.150 HD
ATOM     62  O   LYS A   1      15.845 -12.685  12.492  0.00  0.00    -0.274 OA
BRANCH  59  63
ATOM     63  CA  LYS A   1      16.432 -13.953  14.449  0.00  0.00    +0.145 C 
BRANCH  63  64
ATOM     64  N   LYS A   1      17.747 -14.089  13.814  0.00  0.00    -0.238 NA
ATOM     65  H   LYS A   1      17.970 -13.503  12.984  0.00  0.00    +0.142 HD
ENDBRANCH  63  64
BRANCH  63  66
ATOM     66  CB  LYS A   1      16.536 -13.061  15.694  0.00  0.00    +0.026 C 
BRANCH  66  67
ATOM     67  CG  LYS A   1      15.267 -13.001  16.529  0.00  0.00    -0.000 C 
BRANCH  67  68
ATOM     68  CD  LYS A   1      15.449 -12.128  17.756  0.00  0.00    -0.024 C 
BRANCH  68  69
ATOM     69  CE  LYS A   1      14.204 -12.149  18.631  0.00  0.00    -0.086 C 
BRANCH  69  70
ATOM     70  NZ  LYS A   1      14.370 -11.310  19.852  0.00  0.00    +0.380 N 
ATOM     71  HZ1 LYS A   1      13.500 -11.351  20.421  0.00  0.00    -0.089 HD
ATOM     72  HZ2 LYS A   1      15.169 -11.669  20.412  0.00  0.00    -0.089 HD
ATOM     73  HZ3 LYS A   1      14.556 -10.326  19.572  0.00  0.00    -0.089 HD
ENDBRANCH  69  70
ENDBRANCH  68  69
ENDBRANCH  67  68
ENDBRANCH  66  67
ENDBRANCH  63  66
ENDBRANCH  59  63
ENDBRANCH  58  60
BRANCH  58  74
ATOM     74  CB  MET A   2      12.410 -14.225  12.021  0.00  0.00    +0.041 C 
BRANCH  74  75
ATOM     75  CG  MET A   2      13.328 -15.250  11.380  0.00  0.00    +0.060 C 
BRANCH  75  76
ATOM     76  SD  MET A   2      13.569 -14.972   9.638  0.00  0.00    -0.139 S 
ATOM     77  CE  MET A   2      12.009 -15.513   8.994  0.00  0.00    +0.069 C 
ENDBRANCH  75  76
ENDBRANCH  74  75
ENDBRANCH  58  74
ENDBRANCH  54  58
ENDBRANCH  53  56
BRANCH  53  78
ATOM     78  CB  ILE A   3      11.448  -9.166  14.877  0.00  0.00    +0.027 C 
ATOM     79  CG2 ILE A   3      12.307  -9.644  16.037  0.00  0.00    +0.002 C 
BRANCH  78  80
ATOM     80  CG1 ILE A   3      12.219  -8.277  13.897  0.00  0.00    +0.002 C 
ATOM     81  CD1 ILE A   3      12.730  -7.008  14.515  0.00  0.00    +0.000 C 
ENDBRANCH  78  80
ENDBRANCH  53  78
ENDBRANCH  49  53
ENDBRANCH  48  50
ENDBRANCH  44  48
ENDBRANCH  43  46
ENDBRANCH   1  43
TORSDOF 36
REMARK  Name = ../refined-set-2016/1b6k/1b6k_pocket.pdb
REMARK  215 active torsions:
REMARK  status: ('A' for Active; 'I' for Inactive)
REMARK    1  A    between atoms: _1  and  _3
REMARK    2  A    between atoms: _3  and  _4
REMARK    3  A    between atoms: _3  and  _6
REMARK    4  A    between atoms: _6  and  _7
REMARK    5  A    between atoms: _7  and  _8
REMARK    6  A    between atoms: _8  and  _9
REMARK    7  A    between atoms: _18  and  _20
REMARK    8  A    between atoms: _20  and  _21
REMARK    9  A    between atoms: _20  and  _23
REMARK   10  A    between atoms: _23  and  _24
REMARK   11  A    between atoms: _27  and  _29
REMARK   12  A    between atoms: _29  and  _30
REMARK   13  A    between atoms: _29  and  _32
REMARK   14  A    between atoms: _32  and  _33
REMARK   15  A    between atoms: _36  and  _38
REMARK   16  A    between atoms: _38  and  _39
REMARK   17  A    between atoms: _38  and  _41
REMARK   18  A    between atoms: _41  and  _42
REMARK   19  A    between atoms: _45  and  _47
REMARK   20  A    between atoms: _47  and  _48
REMARK   21  A    between atoms: _47  and  _50
REMARK   22  A    between atoms: _50  and  _51
REMARK   23  A    between atoms: _54  and  _56
REMARK   24  A    between atoms: _56  and  _57
REMARK   25  A    between atoms: _59  and  _61
REMARK   26  A    between atoms: _61  and  _62
REMARK   27  A    between atoms: _65  and  _67
REMARK   28  A    between atoms: _67  and  _68
REMARK   29  A    between atoms: _67  and  _70
REMARK   30  A    between atoms: _70  and  _71
REMARK   31  A    between atoms: _74  and  _76
REMARK   32  A    between atoms: _76  and  _77
REMARK   33  A    between atoms: _76  and  _79
REMARK   34  A    between atoms: _79  and  _80
REMARK   35  A    between atoms: _83  and  _85
REMARK   36  A    between atoms: _85  and  _86
REMARK   37  A    between atoms: _85  and  _88
REMARK   38  A    between atoms: _88  and  _89
REMARK   39  A    between atoms: _92  and  _94
REMARK   40  A    between atoms: _94  and  _95
REMARK   41  A    between atoms: _94  and  _97
REMARK   42  A    between atoms: _100  and  _102
REMARK   43  A    between atoms: _102  and  _103
REMARK   44  A    between atoms: _102  and  _105
REMARK   45  A    between atoms: _105  and  _106
REMARK   46  A    between atoms: _106  and  _107
REMARK   47  A    between atoms: _109  and  _111
REMARK   48  A    between atoms: _111  and  _112
REMARK   49  A    between atoms: _111  and  _114
REMARK   50  A    between atoms: _114  and  _115
REMARK   51  A    between atoms: _118  and  _120
REMARK   52  A    between atoms: _120  and  _121
REMARK   53  A    between atoms: _123  and  _125
REMARK   54  A    between atoms: _125  and  _126
REMARK   55  A    between atoms: _128  and  _130
REMARK   56  A    between atoms: _130  and  _131
REMARK   57  A    between atoms: _130  and  _133
REMARK   58  A    between atoms: _133  and  _134
REMARK   59  A    between atoms: _137  and  _139
REMARK   60  A    between atoms: _139  and  _140
REMARK   61  A    between atoms: _142  and  _144
REMARK   62  A    between atoms: _144  and  _145
REMARK   63  A    between atoms: _147  and  _149
REMARK   64  A    between atoms: _149  and  _150
REMARK   65  A    between atoms: _149  and  _152
REMARK   66  A    between atoms: _152  and  _153
REMARK   67  A    between atoms: _159  and  _161
REMARK   68  A    between atoms: _161  and  _162
REMARK   69  A    between atoms: _161  and  _164
REMARK   70  A    between atoms: _164  and  _165
REMARK   71  A    between atoms: _168  and  _170
REMARK   72  A    between atoms: _170  and  _171
REMARK   73  A    between atoms: _170  and  _173
REMARK   74  A    between atoms: _173  and  _174
REMARK   75  A    between atoms: _177  and  _179
REMARK   76  A    between atoms: _179  and  _180
REMARK   77  A    between atoms: _179  and  _182
REMARK   78  A    between atoms: _182  and  _183
REMARK   79  A    between atoms: _187  and  _188
REMARK   80  A    between atoms: _193  and  _195
REMARK   81  A    between atoms: _195  and  _196
REMARK   82  A    between atoms: _195  and  _198
REMARK   83  A    between atoms: _201  and  _203
REMARK   84  A    between atoms: _203  and  _204
REMARK   85  A    between atoms: _203  and  _206
REMARK   86  A    between atoms: _206  and  _207
REMARK   87  A    between atoms: _212  and  _214
REMARK   88  A    between atoms: _214  and  _215
REMARK   89  A    between atoms: _214  and  _217
REMARK   90  A    between atoms: _217  and  _218
REMARK   91  A    between atoms: _221  and  _223
REMARK   92  A    between atoms: _223  and  _224
REMARK   93  A    between atoms: _223  and  _226
REMARK   94  A    between atoms: _226  and  _227
REMARK   95  A    between atoms: _230  and  _232
REMARK   96  A    between atoms: _232  and  _233
REMARK   97  A    between atoms: _235  and  _237
REMARK   98  A    between atoms: _237  and  _238
REMARK   99  A    between atoms: _237  and  _240
REMARK  100  A    between atoms: _240  and  _241
REMARK  101  A    between atoms: _241  and  _242
REMARK  102  A    between atoms: _242  and  _243
REMARK  103  A    between atoms: _252  and  _254
REMARK  104  A    between atoms: _254  and  _255
REMARK  105  A    between atoms: _254  and  _257
REMARK  106  A    between atoms: _257  and  _258
REMARK  107  A    between atoms: _258  and  _259
REMARK  108  A    between atoms: _259  and  _260
REMARK  109  A    between atoms: _269  and  _271
REMARK  110  A    between atoms: _271  and  _272
REMARK  111  A    between atoms: _271  and  _274
REMARK  112  A    between atoms: _274  and  _275
REMARK  113  A    between atoms: _278  and  _280
REMARK  114  A    between atoms: _280  and  _281
REMARK  115  A    between atoms: _280  and  _283
REMARK  116  A    between atoms: _283  and  _284
REMARK  117  A    between atoms: _287  and  _289
REMARK  118  A    between atoms: _289  and  _290
REMARK  119  A    between atoms: _289  and  _292
REMARK  120  A    between atoms: _292  and  _293
REMARK  121  A    between atoms: _296  and  _298
REMARK  122  A    between atoms: _298  and  _299
REMARK  123  A    between atoms: _298  and  _301
REMARK  124  A    between atoms: _301  and  _302
REMARK  125  A    between atoms: _305  and  _307
REMARK  126  A    between atoms: _307  and  _308
REMARK  127  A    between atoms: _307  and  _310
REMARK  128  A    between atoms: _310  and  _311
REMARK  129  A    between atoms: _314  and  _316
REMARK  130  A    between atoms: _316  and  _317
REMARK  131  A    between atoms: _319  and  _321
REMARK  132  A    between atoms: _321  and  _322
REMARK  133  A    between atoms: _325  and  _327
REMARK  134  A    between atoms: _327  and  _328
REMARK  135  A    between atoms: _327  and  _330
REMARK  136  A    between atoms: _330  and  _331
REMARK  137  A    between atoms: _334  and  _336
REMARK  138  A    between atoms: _336  and  _337
REMARK  139  A    between atoms: _336  and  _339
REMARK  140  A    between atoms: _339  and  _340
REMARK  141  A    between atoms: _343  and  _345
REMARK  142  A    between atoms: _345  and  _346
REMARK  143  A    between atoms: _345  and  _348
REMARK  144  A    between atoms: _348  and  _349
REMARK  145  A    between atoms: _352  and  _354
REMARK  146  A    between atoms: _354  and  _355
REMARK  147  A    between atoms: _354  and  _357
REMARK  148  A    between atoms: _360  and  _362
REMARK  149  A    between atoms: _362  and  _363
REMARK  150  A    between atoms: _362  and  _365
REMARK  151  A    between atoms: _365  and  _366
REMARK  152  A    between atoms: _366  and  _367
REMARK  153  A    between atoms: _367  and  _368
REMARK  154  A    between atoms: _368  and  _369
REMARK  155  A    between atoms: _373  and  _375
REMARK  156  A    between atoms: _375  and  _376
REMARK  157  A    between atoms: _375  and  _378
REMARK  158  A    between atoms: _378  and  _379
REMARK  159  A    between atoms: _379  and  _380
REMARK  160  A    between atoms: _382  and  _384
REMARK  161  A    between atoms: _384  and  _385
REMARK  162  A    between atoms: _384  and  _387
REMARK  163  A    between atoms: _387  and  _388
REMARK  164  A    between atoms: _391  and  _393
REMARK  165  A    between atoms: _393  and  _394
REMARK  166  A    between atoms: _396  and  _398
REMARK  167  A    between atoms: _398  and  _399
REMARK  168  A    between atoms: _401  and  _403
REMARK  169  A    between atoms: _403  and  _404
REMARK  170  A    between atoms: _403  and  _406
REMARK  171  A    between atoms: _406  and  _407
REMARK  172  A    between atoms: _410  and  _412
REMARK  173  A    between atoms: _412  and  _413
REMARK  174  A    between atoms: _415  and  _417
REMARK  175  A    between atoms: _417  and  _418
REMARK  176  A    between atoms: _420  and  _422
REMARK  177  A    between atoms: _422  and  _423
REMARK  178  A    between atoms: _422  and  _425
REMARK  179  A    between atoms: _425  and  _426
REMARK  180  A    between atoms: _432  and  _434
REMARK  181  A    between atoms: _434  and  _435
REMARK  182  A    between atoms: _434  and  _437
REMARK  183  A    between atoms: _437  and  _438
REMARK  184  A    between atoms: _441  and  _443
REMARK  185  A    between atoms: _443  and  _444
REMARK  186  A    between atoms: _443  and  _446
REMARK  187  A    between atoms: _446  and  _447
REMARK  188  A    between atoms: _450  and  _452
REMARK  189  A    between atoms: _452  and  _453
REMARK  190  A    between atoms: _452  and  _455
REMARK  191  A    between atoms: _455  and  _456
REMARK  192  A    between atoms: _460  and  _461
REMARK  193  A    between atoms: _466  and  _468
REMARK  194  A    between atoms: _468  and  _469
REMARK  195  A    between atoms: _468  and  _471
REMARK  196  A    between atoms: _474  and  _476
REMARK  197  A    between atoms: _476  and  _477
REMARK  198  A    between atoms: _476  and  _479
REMARK  199  A    between atoms: _479  and  _480
REMARK  200  A    between atoms: _485  and  _487
REMARK  201  A    between atoms: _487  and  _488
REMARK  202  A    between atoms: _487  and  _490
REMARK  203  A    between atoms: _490  and  _491
REMARK  204  A    between atoms: _494  and  _496
REMARK  205  A    between atoms: _496  and  _497
REMARK  206  A    between atoms: _496  and  _499
REMARK  207  A    between atoms: _499  and  _500
REMARK  208  A    between atoms: _503  and  _505
REMARK  209  A    between atoms: _505  and  _506
REMARK  210  A    between atoms: _508  and  _510
REMARK  211  A    between atoms: _510  and  _511
REMARK  212  A    between atoms: _510  and  _513
REMARK  213  A    between atoms: _513  and  _514
REMARK  214  A    between atoms: _514  and  _515
REMARK  215  A    between atoms: _515  and  _516
REMARK                            x       y       z     vdW  Elec       q    Type
REMARK                         _______ _______ _______ _____ _____    ______ ____
ROOT
ATOM      1  CA  LEU A   1      18.636  -6.285  16.404  0.00  0.00    +0.133 C 
ENDROOT
BRANCH   1   2
ATOM      2  N   LEU A   1      18.819  -5.470  17.615  0.00  0.00    -0.239 NA
ATOM      3  H   LEU A   1      18.096  -4.767  17.871  0.00  0.00    +0.142 HD
ENDBRANCH   1   2
BRANCH   1   4
ATOM      4  C   LEU A   1      18.970  -5.388  15.222  0.00  0.00    +0.224 C 
ATOM      5  O   LEU A   1      18.449  -4.281  15.123  0.00  0.00    -0.287 OA
ENDBRANCH   1   4
BRANCH   1   6
ATOM      6  CB  LEU A   1      17.189  -6.765  16.286  0.00  0.00    +0.025 C 
BRANCH   6   7
ATOM      7  CG  LEU A   1      16.585  -7.473  17.504  0.00  0.00    +0.002 C 
ATOM      8  CD2 LEU A   1      17.400  -8.703  17.874  0.00  0.00    +0.000 C 
ATOM      9  CD1 LEU A   1      15.153  -7.853  17.211  0.00  0.00    +0.000 C 
ENDBRANCH   6   7
ENDBRANCH   1   6
TORSDOF 4
REMARK  Name = ../refined-set-2016/1b6k/1b6k_pocket.pdb
REMARK  215 active torsions:
REMARK  status: ('A' for Active; 'I' for Inactive)
REMARK    1  A    between atoms: _1  and  _3
REMARK    2  A    between atoms: _3  and  _4
REMARK    3  A    between atoms: _3  and  _6
REMARK    4  A    between atoms: _6  and  _7
REMARK    5  A    between atoms: _7  and  _8
REMARK    6  A    between atoms: _8  and  _9
REMARK    7  A    between atoms: _18  and  _20
REMARK    8  A    between atoms: _20  and  _21
REMARK    9  A    between atoms: _20  and  _23
REMARK   10  A    between atoms: _23  and  _24
REMARK   11  A    between atoms: _27  and  _29
REMARK   12  A    between atoms: _29  and  _30
REMARK   13  A    between atoms: _29  and  _32
REMARK   14  A    between atoms: _32  and  _33
REMARK   15  A    between atoms: _36  and  _38
REMARK   16  A    between atoms: _38  and  _39
REMARK   17  A    between atoms: _38  and  _41
REMARK   18  A    between atoms: _41  and  _42
REMARK   19  A    between atoms: _45  and  _47
REMARK   20  A    between atoms: _47  and  _48
REMARK   21  A    between atoms: _47  and  _50
REMARK   22  A    between atoms: _50  and  _51
REMARK   23  A    between atoms: _54  and  _56
REMARK   24  A    between atoms: _56  and  _57
REMARK   25  A    between atoms: _59  and  _61
REMARK   26  A    between atoms: _61  and  _62
REMARK   27  A    between atoms: _65  and  _67
REMARK   28  A    between atoms: _67  and  _68
REMARK   29  A    between atoms: _67  and  _70
REMARK   30  A    between atoms: _70  and  _71
REMARK   31  A    between atoms: _74  and  _76
REMARK   32  A    between atoms: _76  and  _77
REMARK   33  A    between atoms: _76  and  _79
REMARK   34  A    between atoms: _79  and  _80
REMARK   35  A    between atoms: _83  and  _85
REMARK   36  A    between atoms: _85  and  _86
REMARK   37  A    between atoms: _85  and  _88
REMARK   38  A    between atoms: _88  and  _89
REMARK   39  A    between atoms: _92  and  _94
REMARK   40  A    between atoms: _94  and  _95
REMARK   41  A    between atoms: _94  and  _97
REMARK   42  A    between atoms: _100  and  _102
REMARK   43  A    between atoms: _102  and  _103
REMARK   44  A    between atoms: _102  and  _105
REMARK   45  A    between atoms: _105  and  _106
REMARK   46  A    between atoms: _106  and  _107
REMARK   47  A    between atoms: _109  and  _111
REMARK   48  A    between atoms: _111  and  _112
REMARK   49  A    between atoms: _111  and  _114
REMARK   50  A    between atoms: _114  and  _115
REMARK   51  A    between atoms: _118  and  _120
REMARK   52  A    between atoms: _120  and  _121
REMARK   53  A    between atoms: _123  and  _125
REMARK   54  A    between atoms: _125  and  _126
REMARK   55  A    between atoms: _128  and  _130
REMARK   56  A    between atoms: _130  and  _131
REMARK   57  A    between atoms: _130  and  _133
REMARK   58  A    between atoms: _133  and  _134
REMARK   59  A    between atoms: _137  and  _139
REMARK   60  A    between atoms: _139  and  _140
REMARK   61  A    between atoms: _142  and  _144
REMARK   62  A    between atoms: _144  and  _145
REMARK   63  A    between atoms: _147  and  _149
REMARK   64  A    between atoms: _149  and  _150
REMARK   65  A    between atoms: _149  and  _152
REMARK   66  A    between atoms: _152  and  _153
REMARK   67  A    between atoms: _159  and  _161
REMARK   68  A    between atoms: _161  and  _162
REMARK   69  A    between atoms: _161  and  _164
REMARK   70  A    between atoms: _164  and  _165
REMARK   71  A    between atoms: _168  and  _170
REMARK   72  A    between atoms: _170  and  _171
REMARK   73  A    between atoms: _170  and  _173
REMARK   74  A    between atoms: _173  and  _174
REMARK   75  A    between atoms: _177  and  _179
REMARK   76  A    between atoms: _179  and  _180
REMARK   77  A    between atoms: _179  and  _182
REMARK   78  A    between atoms: _182  and  _183
REMARK   79  A    between atoms: _187  and  _188
REMARK   80  A    between atoms: _193  and  _195
REMARK   81  A    between atoms: _195  and  _196
REMARK   82  A    between atoms: _195  and  _198
REMARK   83  A    between atoms: _201  and  _203
REMARK   84  A    between atoms: _203  and  _204
REMARK   85  A    between atoms: _203  and  _206
REMARK   86  A    between atoms: _206  and  _207
REMARK   87  A    between atoms: _212  and  _214
REMARK   88  A    between atoms: _214  and  _215
REMARK   89  A    between atoms: _214  and  _217
REMARK   90  A    between atoms: _217  and  _218
REMARK   91  A    between atoms: _221  and  _223
REMARK   92  A    between atoms: _223  and  _224
REMARK   93  A    between atoms: _223  and  _226
REMARK   94  A    between atoms: _226  and  _227
REMARK   95  A    between atoms: _230  and  _232
REMARK   96  A    between atoms: _232  and  _233
REMARK   97  A    between atoms: _235  and  _237
REMARK   98  A    between atoms: _237  and  _238
REMARK   99  A    between atoms: _237  and  _240
REMARK  100  A    between atoms: _240  and  _241
REMARK  101  A    between atoms: _241  and  _242
REMARK  102  A    between atoms: _242  and  _243
REMARK  103  A    between atoms: _252  and  _254
REMARK  104  A    between atoms: _254  and  _255
REMARK  105  A    between atoms: _254  and  _257
REMARK  106  A    between atoms: _257  and  _258
REMARK  107  A    between atoms: _258  and  _259
REMARK  108  A    between atoms: _259  and  _260
REMARK  109  A    between atoms: _269  and  _271
REMARK  110  A    between atoms: _271  and  _272
REMARK  111  A    between atoms: _271  and  _274
REMARK  112  A    between atoms: _274  and  _275
REMARK  113  A    between atoms: _278  and  _280
REMARK  114  A    between atoms: _280  and  _281
REMARK  115  A    between atoms: _280  and  _283
REMARK  116  A    between atoms: _283  and  _284
REMARK  117  A    between atoms: _287  and  _289
REMARK  118  A    between atoms: _289  and  _290
REMARK  119  A    between atoms: _289  and  _292
REMARK  120  A    between atoms: _292  and  _293
REMARK  121  A    between atoms: _296  and  _298
REMARK  122  A    between atoms: _298  and  _299
REMARK  123  A    between atoms: _298  and  _301
REMARK  124  A    between atoms: _301  and  _302
REMARK  125  A    between atoms: _305  and  _307
REMARK  126  A    between atoms: _307  and  _308
REMARK  127  A    between atoms: _307  and  _310
REMARK  128  A    between atoms: _310  and  _311
REMARK  129  A    between atoms: _314  and  _316
REMARK  130  A    between atoms: _316  and  _317
REMARK  131  A    between atoms: _319  and  _321
REMARK  132  A    between atoms: _321  and  _322
REMARK  133  A    between atoms: _325  and  _327
REMARK  134  A    between atoms: _327  and  _328
REMARK  135  A    between atoms: _327  and  _330
REMARK  136  A    between atoms: _330  and  _331
REMARK  137  A    between atoms: _334  and  _336
REMARK  138  A    between atoms: _336  and  _337
REMARK  139  A    between atoms: _336  and  _339
REMARK  140  A    between atoms: _339  and  _340
REMARK  141  A    between atoms: _343  and  _345
REMARK  142  A    between atoms: _345  and  _346
REMARK  143  A    between atoms: _345  and  _348
REMARK  144  A    between atoms: _348  and  _349
REMARK  145  A    between atoms: _352  and  _354
REMARK  146  A    between atoms: _354  and  _355
REMARK  147  A    between atoms: _354  and  _357
REMARK  148  A    between atoms: _360  and  _362
REMARK  149  A    between atoms: _362  and  _363
REMARK  150  A    between atoms: _362  and  _365
REMARK  151  A    between atoms: _365  and  _366
REMARK  152  A    between atoms: _366  and  _367
REMARK  153  A    between atoms: _367  and  _368
REMARK  154  A    between atoms: _368  and  _369
REMARK  155  A    between atoms: _373  and  _375
REMARK  156  A    between atoms: _375  and  _376
REMARK  157  A    between atoms: _375  and  _378
REMARK  158  A    between atoms: _378  and  _379
REMARK  159  A    between atoms: _379  and  _380
REMARK  160  A    between atoms: _382  and  _384
REMARK  161  A    between atoms: _384  and  _385
REMARK  162  A    between atoms: _384  and  _387
REMARK  163  A    between atoms: _387  and  _388
REMARK  164  A    between atoms: _391  and  _393
REMARK  165  A    between atoms: _393  and  _394
REMARK  166  A    between atoms: _396  and  _398
REMARK  167  A    between atoms: _398  and  _399
REMARK  168  A    between atoms: _401  and  _403
REMARK  169  A    between atoms: _403  and  _404
REMARK  170  A    between atoms: _403  and  _406
REMARK  171  A    between atoms: _406  and  _407
REMARK  172  A    between atoms: _410  and  _412
REMARK  173  A    between atoms: _412  and  _413
REMARK  174  A    between atoms: _415  and  _417
REMARK  175  A    between atoms: _417  and  _418
REMARK  176  A    between atoms: _420  and  _422
REMARK  177  A    between atoms: _422  and  _423
REMARK  178  A    between atoms: _422  and  _425
REMARK  179  A    between atoms: _425  and  _426
REMARK  180  A    between atoms: _432  and  _434
REMARK  181  A    between atoms: _434  and  _435
REMARK  182  A    between atoms: _434  and  _437
REMARK  183  A    between atoms: _437  and  _438
REMARK  184  A    between atoms: _441  and  _443
REMARK  185  A    between atoms: _443  and  _444
REMARK  186  A    between atoms: _443  and  _446
REMARK  187  A    between atoms: _446  and  _447
REMARK  188  A    between atoms: _450  and  _452
REMARK  189  A    between atoms: _452  and  _453
REMARK  190  A    between atoms: _452  and  _455
REMARK  191  A    between atoms: _455  and  _456
REMARK  192  A    between atoms: _460  and  _461
REMARK  193  A    between atoms: _466  and  _468
REMARK  194  A    between atoms: _468  and  _469
REMARK  195  A    between atoms: _468  and  _471
REMARK  196  A    between atoms: _474  and  _476
REMARK  197  A    between atoms: _476  and  _477
REMARK  198  A    between atoms: _476  and  _479
REMARK  199  A    between atoms: _479  and  _480
REMARK  200  A    between atoms: _485  and  _487
REMARK  201  A    between atoms: _487  and  _488
REMARK  202  A    between atoms: _487  and  _490
REMARK  203  A    between atoms: _490  and  _491
REMARK  204  A    between atoms: _494  and  _496
REMARK  205  A    between atoms: _496  and  _497
REMARK  206  A    between atoms: _496  and  _499
REMARK  207  A    between atoms: _499  and  _500
REMARK  208  A    between atoms: _503  and  _505
REMARK  209  A    between atoms: _505  and  _506
REMARK  210  A    between atoms: _508  and  _510
REMARK  211  A    between atoms: _510  and  _511
REMARK  212  A    between atoms: _510  and  _513
REMARK  213  A    between atoms: _513  and  _514
REMARK  214  A    between atoms: _514  and  _515
REMARK  215  A    between atoms: _515  and  _516
REMARK                            x       y       z     vdW  Elec       q    Type
REMARK                         _______ _______ _______ _____ _____    ______ ____
ROOT
ATOM      1  CA  ILE A   5      13.342   1.787  16.640  0.00  0.00    +0.149 C 
ENDROOT
BRANCH   1   3
ATOM      2  C   ASN A   4      14.610   3.032  14.958  0.00  0.00    +0.241 C 
ATOM      3  N   ILE A   5      14.397   1.901  15.624  0.00  0.00    -0.297 N 
ATOM      4  H   ILE A   5      14.994   1.074  15.420  0.00  0.00    +0.150 HD
ATOM      5  O   ASN A   4      13.975   4.071  15.167  0.00  0.00    -0.273 OA
BRANCH   2   6
ATOM      6  CA  ASN A   4      15.697   2.990  13.893  0.00  0.00    +0.158 C 
BRANCH   6   8
ATOM      7  C   VAL A   3      14.278   2.893  11.905  0.00  0.00    +0.241 C 
ATOM      8  N   ASN A   4      15.093   3.588  12.696  0.00  0.00    -0.297 N 
ATOM      9  H   ASN A   4      15.307   4.578  12.460  0.00  0.00    +0.150 HD
ATOM     10  O   VAL A   3      14.055   1.690  12.063  0.00  0.00    -0.273 OA
BRANCH   7  11
ATOM     11  CA  VAL A   3      13.658   3.659  10.729  0.00  0.00    +0.149 C 
BRANCH  11  13
ATOM     12  C   PRO A   2      13.717   3.147   8.332  0.00  0.00    +0.241 C 
ATOM     13  N   VAL A   3      13.450   2.771   9.581  0.00  0.00    -0.297 N 
ATOM     14  H   VAL A   3      13.081   1.813   9.748  0.00  0.00    +0.150 HD
ATOM     15  O   PRO A   2      14.166   4.257   8.044  0.00  0.00    -0.273 OA
BRANCH  12  22
ATOM     16  C   THR A   1      14.617   0.150   8.141  0.00  0.00    +0.244 C 
ATOM     17  O   THR A   1      15.712   0.704   8.029  0.00  0.00    -0.273 OA
ATOM     18  N   PRO A   2      13.470   0.746   7.764  0.00  0.00    -0.272 N 
ATOM     19  CD  PRO A   2      12.137   0.119   7.735  0.00  0.00    +0.094 C 
ATOM     20  CG  PRO A   2      11.465   0.867   6.630  0.00  0.00    +0.024 C 
ATOM     21  CB  PRO A   2      11.930   2.264   6.838  0.00  0.00    +0.031 C 
ATOM     22  CA  PRO A   2      13.401   2.121   7.247  0.00  0.00    +0.152 C 
BRANCH  16  23
ATOM     23  CA  THR A   1      14.524  -1.283   8.662  0.00  0.00    +0.172 C 
BRANCH  23  24
ATOM     24  N   THR A   1      15.671  -2.067   8.176  0.00  0.00    -0.236 NA
ATOM     25  H   THR A   1      16.627  -1.819   8.502  0.00  0.00    +0.142 HD
ENDBRANCH  23  24
BRANCH  23  26
ATOM     26  CB  THR A   1      14.427  -1.283  10.220  0.00  0.00    +0.135 C 
ATOM     27  CG2 THR A   1      15.729  -0.834  10.862  0.00  0.00    +0.034 C 
BRANCH  26  28
ATOM     28  OG1 THR A   1      13.365  -0.412  10.638  0.00  0.00    -0.383 OA
ATOM     29  HG1 THR A   1      13.549   0.507  10.320  0.00  0.00    +0.210 HD
ENDBRANCH  26  28
ENDBRANCH  23  26
ENDBRANCH  16  23
ENDBRANCH  12  22
ENDBRANCH  11  13
BRANCH  11  30
ATOM     30  CB  VAL A   3      12.303   4.257  11.208  0.00  0.00    +0.027 C 
ATOM     31  CG2 VAL A   3      11.325   3.232  11.579  0.00  0.00    +0.002 C 
ATOM     32  CG1 VAL A   3      11.564   4.916  10.052  0.00  0.00    +0.002 C 
ENDBRANCH  11  30
ENDBRANCH   7  11
ENDBRANCH   6   8
BRANCH   6  33
ATOM     33  CB  ASN A   4      16.912   3.794  14.344  0.00  0.00    +0.114 C 
BRANCH  33  34
ATOM     34  CG  ASN A   4      18.041   3.714  13.361  0.00  0.00    +0.222 C 
ATOM     35  OD1 ASN A   4      18.476   2.627  12.997  0.00  0.00    -0.275 OA
ATOM     36  ND2 ASN A   4      18.510   4.865  12.899  0.00  0.00    -0.329 N 
ATOM     37 HD21 ASN A   4      18.109   5.763  13.237  0.00  0.00    +0.145 HD
ATOM     38 HD22 ASN A   4      19.279   4.870  12.198  0.00  0.00    +0.145 HD
ENDBRANCH  33  34
ENDBRANCH   6  33
ENDBRANCH   2   6
ENDBRANCH   1   3
BRANCH   1  39
ATOM     39  C   ILE A   5      13.865   1.405  18.018  0.00  0.00    +0.241 C 
ATOM     40  N   ILE A   6      13.602   2.253  19.012  0.00  0.00    -0.297 N 
ATOM     41  H   ILE A   6      13.092   3.136  18.808  0.00  0.00    +0.150 HD
ATOM     42  O   ILE A   5      14.503   0.365  18.174  0.00  0.00    -0.273 OA
BRANCH  40  43
ATOM     43  CA  ILE A   6      14.020   1.962  20.393  0.00  0.00    +0.149 C 
BRANCH  43  44
ATOM     44  C   ILE A   6      12.811   1.341  21.093  0.00  0.00    +0.241 C 
ATOM     45  N   GLY A   7      12.951   0.081  21.494  0.00  0.00    -0.295 N 
ATOM     46  H   GLY A   7      13.856  -0.408  21.341  0.00  0.00    +0.150 HD
ATOM     47  O   ILE A   6      11.767   1.979  21.239  0.00  0.00    -0.273 OA
BRANCH  45  48
ATOM     48  CA  GLY A   7      11.861  -0.622  22.142  0.00  0.00    +0.176 C 
BRANCH  48  49
ATOM     49  C   GLY A   7      11.880  -0.621  23.654  0.00  0.00    +0.243 C 
ATOM     50  O   GLY A   7      12.798  -0.077  24.277  0.00  0.00    -0.273 OA
ATOM     51  N   ARG A   8      10.887  -1.292  24.236  0.00  0.00    -0.298 N 
ATOM     52  H   ARG A   8      10.190  -1.773  23.632  0.00  0.00    +0.150 HD
BRANCH  51  53
ATOM     53  CA  ARG A   8      10.734  -1.382  25.693  0.00  0.00    +0.137 C 
BRANCH  53  54
ATOM     54  C   ARG A   8      11.941  -1.940  26.427  0.00  0.00    +0.227 C 
ATOM     55  O   ARG A   8      12.177  -1.583  27.582  0.00  0.00    -0.286 OA
ENDBRANCH  53  54
BRANCH  53  56
ATOM     56  CB  ARG A   8       9.492  -2.194  26.060  0.00  0.00    +0.031 C 
BRANCH  56  57
ATOM     57  CG  ARG A   8       8.179  -1.579  25.599  0.00  0.00    +0.045 C 
BRANCH  57  58
ATOM     58  CD  ARG A   8       6.990  -2.307  26.203  0.00  0.00    +0.174 C 
BRANCH  58  59
ATOM     59  NE  ARG A   8       6.856  -3.671  25.666  0.00  0.00    -0.265 N 
ATOM     60  CZ  ARG A   8       7.274  -4.776  26.282  0.00  0.00    +0.342 C 
ATOM     61  NH2 ARG A   8       7.859  -4.709  27.473  0.00  0.00    -0.292 N 
ATOM     62 HH21 ARG A   8       8.181  -5.579  27.944  0.00  0.00    +0.255 HD
ATOM     63 HH22 ARG A   8       7.995  -3.787  27.934  0.00  0.00    +0.255 HD
ATOM     64  NH1 ARG A   8       7.116  -5.953  25.690  0.00  0.00    -0.292 N 
ATOM     65 HH11 ARG A   8       7.439  -6.821  26.163  0.00  0.00    +0.255 HD
ATOM     66 HH12 ARG A   8       6.669  -6.008  24.753  0.00  0.00    +0.255 HD
ATOM     67  HE  ARG A   8       6.401  -3.780  24.737  0.00  0.00    +0.259 HD
ENDBRANCH  58  59
ENDBRANCH  57  58
ENDBRANCH  56  57
ENDBRANCH  53  56
ENDBRANCH  51  53
ENDBRANCH  48  49
ENDBRANCH  45  48
ENDBRANCH  43  44
BRANCH  43  68
ATOM     68  CB  ILE A   6      14.473   3.229  21.152  0.00  0.00    +0.027 C 
ATOM     69  CG2 ILE A   6      14.890   2.871  22.566  0.00  0.00    +0.002 C 
BRANCH  68  70
ATOM     70  CG1 ILE A   6      15.628   3.912  20.412  0.00  0.00    +0.002 C 
ATOM     71  CD1 ILE A   6      16.856   3.038  20.217  0.00  0.00    +0.000 C 
ENDBRANCH  68  70
ENDBRANCH  43  68
ENDBRANCH  40  43
ENDBRANCH   1  39
BRANCH   1  72
ATOM     72  CB  ILE A   5      12.298   0.727  16.201  0.00  0.00    +0.027 C 
ATOM     73  CG2 ILE A   5      11.221   0.548  17.257  0.00  0.00    +0.002 C 
BRANCH  72  74
ATOM     74  CG1 ILE A   5      11.679   1.136  14.861  0.00  0.00    +0.002 C 
ATOM     75  CD1 ILE A   5      10.723   0.128  14.294  0.00  0.00    +0.000 C 
ENDBRANCH  72  74
ENDBRANCH   1  72
TORSDOF 28
REMARK  Name = ../refined-set-2016/1b6k/1b6k_pocket.pdb
REMARK  215 active torsions:
REMARK  status: ('A' for Active; 'I' for Inactive)
REMARK    1  A    between atoms: _1  and  _3
REMARK    2  A    between atoms: _3  and  _4
REMARK    3  A    between atoms: _3  and  _6
REMARK    4  A    between atoms: _6  and  _7
REMARK    5  A    between atoms: _7  and  _8
REMARK    6  A    between atoms: _8  and  _9
REMARK    7  A    between atoms: _18  and  _20
REMARK    8  A    between atoms: _20  and  _21
REMARK    9  A    between atoms: _20  and  _23
REMARK   10  A    between atoms: _23  and  _24
REMARK   11  A    between atoms: _27  and  _29
REMARK   12  A    between atoms: _29  and  _30
REMARK   13  A    between atoms: _29  and  _32
REMARK   14  A    between atoms: _32  and  _33
REMARK   15  A    between atoms: _36  and  _38
REMARK   16  A    between atoms: _38  and  _39
REMARK   17  A    between atoms: _38  and  _41
REMARK   18  A    between atoms: _41  and  _42
REMARK   19  A    between atoms: _45  and  _47
REMARK   20  A    between atoms: _47  and  _48
REMARK   21  A    between atoms: _47  and  _50
REMARK   22  A    between atoms: _50  and  _51
REMARK   23  A    between atoms: _54  and  _56
REMARK   24  A    between atoms: _56  and  _57
REMARK   25  A    between atoms: _59  and  _61
REMARK   26  A    between atoms: _61  and  _62
REMARK   27  A    between atoms: _65  and  _67
REMARK   28  A    between atoms: _67  and  _68
REMARK   29  A    between atoms: _67  and  _70
REMARK   30  A    between atoms: _70  and  _71
REMARK   31  A    between atoms: _74  and  _76
REMARK   32  A    between atoms: _76  and  _77
REMARK   33  A    between atoms: _76  and  _79
REMARK   34  A    between atoms: _79  and  _80
REMARK   35  A    between atoms: _83  and  _85
REMARK   36  A    between atoms: _85  and  _86
REMARK   37  A    between atoms: _85  and  _88
REMARK   38  A    between atoms: _88  and  _89
REMARK   39  A    between atoms: _92  and  _94
REMARK   40  A    between atoms: _94  and  _95
REMARK   41  A    between atoms: _94  and  _97
REMARK   42  A    between atoms: _100  and  _102
REMARK   43  A    between atoms: _102  and  _103
REMARK   44  A    between atoms: _102  and  _105
REMARK   45  A    between atoms: _105  and  _106
REMARK   46  A    between atoms: _106  and  _107
REMARK   47  A    between atoms: _109  and  _111
REMARK   48  A    between atoms: _111  and  _112
REMARK   49  A    between atoms: _111  and  _114
REMARK   50  A    between atoms: _114  and  _115
REMARK   51  A    between atoms: _118  and  _120
REMARK   52  A    between atoms: _120  and  _121
REMARK   53  A    between atoms: _123  and  _125
REMARK   54  A    between atoms: _125  and  _126
REMARK   55  A    between atoms: _128  and  _130
REMARK   56  A    between atoms: _130  and  _131
REMARK   57  A    between atoms: _130  and  _133
REMARK   58  A    between atoms: _133  and  _134
REMARK   59  A    between atoms: _137  and  _139
REMARK   60  A    between atoms: _139  and  _140
REMARK   61  A    between atoms: _142  and  _144
REMARK   62  A    between atoms: _144  and  _145
REMARK   63  A    between atoms: _147  and  _149
REMARK   64  A    between atoms: _149  and  _150
REMARK   65  A    between atoms: _149  and  _152
REMARK   66  A    between atoms: _152  and  _153
REMARK   67  A    between atoms: _159  and  _161
REMARK   68  A    between atoms: _161  and  _162
REMARK   69  A    between atoms: _161  and  _164
REMARK   70  A    between atoms: _164  and  _165
REMARK   71  A    between atoms: _168  and  _170
REMARK   72  A    between atoms: _170  and  _171
REMARK   73  A    between atoms: _170  and  _173
REMARK   74  A    between atoms: _173  and  _174
REMARK   75  A    between atoms: _177  and  _179
REMARK   76  A    between atoms: _179  and  _180
REMARK   77  A    between atoms: _179  and  _182
REMARK   78  A    between atoms: _182  and  _183
REMARK   79  A    between atoms: _187  and  _188
REMARK   80  A    between atoms: _193  and  _195
REMARK   81  A    between atoms: _195  and  _196
REMARK   82  A    between atoms: _195  and  _198
REMARK   83  A    between atoms: _201  and  _203
REMARK   84  A    between atoms: _203  and  _204
REMARK   85  A    between atoms: _203  and  _206
REMARK   86  A    between atoms: _206  and  _207
REMARK   87  A    between atoms: _212  and  _214
REMARK   88  A    between atoms: _214  and  _215
REMARK   89  A    between atoms: _214  and  _217
REMARK   90  A    between atoms: _217  and  _218
REMARK   91  A    between atoms: _221  and  _223
REMARK   92  A    between atoms: _223  and  _224
REMARK   93  A    between atoms: _223  and  _226
REMARK   94  A    between atoms: _226  and  _227
REMARK   95  A    between atoms: _230  and  _232
REMARK   96  A    between atoms: _232  and  _233
REMARK   97  A    between atoms: _235  and  _237
REMARK   98  A    between atoms: _237  and  _238
REMARK   99  A    between atoms: _237  and  _240
REMARK  100  A    between atoms: _240  and  _241
REMARK  101  A    between atoms: _241  and  _242
REMARK  102  A    between atoms: _242  and  _243
REMARK  103  A    between atoms: _252  and  _254
REMARK  104  A    between atoms: _254  and  _255
REMARK  105  A    between atoms: _254  and  _257
REMARK  106  A    between atoms: _257  and  _258
REMARK  107  A    between atoms: _258  and  _259
REMARK  108  A    between atoms: _259  and  _260
REMARK  109  A    between atoms: _269  and  _271
REMARK  110  A    between atoms: _271  and  _272
REMARK  111  A    between atoms: _271  and  _274
REMARK  112  A    between atoms: _274  and  _275
REMARK  113  A    between atoms: _278  and  _280
REMARK  114  A    between atoms: _280  and  _281
REMARK  115  A    between atoms: _280  and  _283
REMARK  116  A    between atoms: _283  and  _284
REMARK  117  A    between atoms: _287  and  _289
REMARK  118  A    between atoms: _289  and  _290
REMARK  119  A    between atoms: _289  and  _292
REMARK  120  A    between atoms: _292  and  _293
REMARK  121  A    between atoms: _296  and  _298
REMARK  122  A    between atoms: _298  and  _299
REMARK  123  A    between atoms: _298  and  _301
REMARK  124  A    between atoms: _301  and  _302
REMARK  125  A    between atoms: _305  and  _307
REMARK  126  A    between atoms: _307  and  _308
REMARK  127  A    between atoms: _307  and  _310
REMARK  128  A    between atoms: _310  and  _311
REMARK  129  A    between atoms: _314  and  _316
REMARK  130  A    between atoms: _316  and  _317
REMARK  131  A    between atoms: _319  and  _321
REMARK  132  A    between atoms: _321  and  _322
REMARK  133  A    between atoms: _325  and  _327
REMARK  134  A    between atoms: _327  and  _328
REMARK  135  A    between atoms: _327  and  _330
REMARK  136  A    between atoms: _330  and  _331
REMARK  137  A    between atoms: _334  and  _336
REMARK  138  A    between atoms: _336  and  _337
REMARK  139  A    between atoms: _336  and  _339
REMARK  140  A    between atoms: _339  and  _340
REMARK  141  A    between atoms: _343  and  _345
REMARK  142  A    between atoms: _345  and  _346
REMARK  143  A    between atoms: _345  and  _348
REMARK  144  A    between atoms: _348  and  _349
REMARK  145  A    between atoms: _352  and  _354
REMARK  146  A    between atoms: _354  and  _355
REMARK  147  A    between atoms: _354  and  _357
REMARK  148  A    between atoms: _360  and  _362
REMARK  149  A    between atoms: _362  and  _363
REMARK  150  A    between atoms: _362  and  _365
REMARK  151  A    between atoms: _365  and  _366
REMARK  152  A    between atoms: _366  and  _367
REMARK  153  A    between atoms: _367  and  _368
REMARK  154  A    between atoms: _368  and  _369
REMARK  155  A    between atoms: _373  and  _375
REMARK  156  A    between atoms: _375  and  _376
REMARK  157  A    between atoms: _375  and  _378
REMARK  158  A    between atoms: _378  and  _379
REMARK  159  A    between atoms: _379  and  _380
REMARK  160  A    between atoms: _382  and  _384
REMARK  161  A    between atoms: _384  and  _385
REMARK  162  A    between atoms: _384  and  _387
REMARK  163  A    between atoms: _387  and  _388
REMARK  164  A    between atoms: _391  and  _393
REMARK  165  A    between atoms: _393  and  _394
REMARK  166  A    between atoms: _396  and  _398
REMARK  167  A    between atoms: _398  and  _399
REMARK  168  A    between atoms: _401  and  _403
REMARK  169  A    between atoms: _403  and  _404
REMARK  170  A    between atoms: _403  and  _406
REMARK  171  A    between atoms: _406  and  _407
REMARK  172  A    between atoms: _410  and  _412
REMARK  173  A    between atoms: _412  and  _413
REMARK  174  A    between atoms: _415  and  _417
REMARK  175  A    between atoms: _417  and  _418
REMARK  176  A    between atoms: _420  and  _422
REMARK  177  A    between atoms: _422  and  _423
REMARK  178  A    between atoms: _422  and  _425
REMARK  179  A    between atoms: _425  and  _426
REMARK  180  A    between atoms: _432  and  _434
REMARK  181  A    between atoms: _434  and  _435
REMARK  182  A    between atoms: _434  and  _437
REMARK  183  A    between atoms: _437  and  _438
REMARK  184  A    between atoms: _441  and  _443
REMARK  185  A    between atoms: _443  and  _444
REMARK  186  A    between atoms: _443  and  _446
REMARK  187  A    between atoms: _446  and  _447
REMARK  188  A    between atoms: _450  and  _452
REMARK  189  A    between atoms: _452  and  _453
REMARK  190  A    between atoms: _452  and  _455
REMARK  191  A    between atoms: _455  and  _456
REMARK  192  A    between atoms: _460  and  _461
REMARK  193  A    between atoms: _466  and  _468
REMARK  194  A    between atoms: _468  and  _469
REMARK  195  A    between atoms: _468  and  _471
REMARK  196  A    between atoms: _474  and  _476
REMARK  197  A    between atoms: _476  and  _477
REMARK  198  A    between atoms: _476  and  _479
REMARK  199  A    between atoms: _479  and  _480
REMARK  200  A    between atoms: _485  and  _487
REMARK  201  A    between atoms: _487  and  _488
REMARK  202  A    between atoms: _487  and  _490
REMARK  203  A    between atoms: _490  and  _491
REMARK  204  A    between atoms: _494  and  _496
REMARK  205  A    between atoms: _496  and  _497
REMARK  206  A    between atoms: _496  and  _499
REMARK  207  A    between atoms: _499  and  _500
REMARK  208  A    between atoms: _503  and  _505
REMARK  209  A    between atoms: _505  and  _506
REMARK  210  A    between atoms: _508  and  _510
REMARK  211  A    between atoms: _510  and  _511
REMARK  212  A    between atoms: _510  and  _513
REMARK  213  A    between atoms: _513  and  _514
REMARK  214  A    between atoms: _514  and  _515
REMARK  215  A    between atoms: _515  and  _516
REMARK                            x       y       z     vdW  Elec       q    Type
REMARK                         _______ _______ _______ _____ _____    ______ ____
ROOT
ATOM      1  O   HOH     1       5.340  -2.546  11.847  0.00  0.00    +0.000 OA
ENDROOT
TORSDOF 0
REMARK  Name = ../refined-set-2016/1b6k/1b6k_pocket.pdb
REMARK  215 active torsions:
REMARK  status: ('A' for Active; 'I' for Inactive)
REMARK    1  A    between atoms: _1  and  _3
REMARK    2  A    between atoms: _3  and  _4
REMARK    3  A    between atoms: _3  and  _6
REMARK    4  A    between atoms: _6  and  _7
REMARK    5  A    between atoms: _7  and  _8
REMARK    6  A    between atoms: _8  and  _9
REMARK    7  A    between atoms: _18  and  _20
REMARK    8  A    between atoms: _20  and  _21
REMARK    9  A    between atoms: _20  and  _23
REMARK   10  A    between atoms: _23  and  _24
REMARK   11  A    between atoms: _27  and  _29
REMARK   12  A    between atoms: _29  and  _30
REMARK   13  A    between atoms: _29  and  _32
REMARK   14  A    between atoms: _32  and  _33
REMARK   15  A    between atoms: _36  and  _38
REMARK   16  A    between atoms: _38  and  _39
REMARK   17  A    between atoms: _38  and  _41
REMARK   18  A    between atoms: _41  and  _42
REMARK   19  A    between atoms: _45  and  _47
REMARK   20  A    between atoms: _47  and  _48
REMARK   21  A    between atoms: _47  and  _50
REMARK   22  A    between atoms: _50  and  _51
REMARK   23  A    between atoms: _54  and  _56
REMARK   24  A    between atoms: _56  and  _57
REMARK   25  A    between atoms: _59  and  _61
REMARK   26  A    between atoms: _61  and  _62
REMARK   27  A    between atoms: _65  and  _67
REMARK   28  A    between atoms: _67  and  _68
REMARK   29  A    between atoms: _67  and  _70
REMARK   30  A    between atoms: _70  and  _71
REMARK   31  A    between atoms: _74  and  _76
REMARK   32  A    between atoms: _76  and  _77
REMARK   33  A    between atoms: _76  and  _79
REMARK   34  A    between atoms: _79  and  _80
REMARK   35  A    between atoms: _83  and  _85
REMARK   36  A    between atoms: _85  and  _86
REMARK   37  A    between atoms: _85  and  _88
REMARK   38  A    between atoms: _88  and  _89
REMARK   39  A    between atoms: _92  and  _94
REMARK   40  A    between atoms: _94  and  _95
REMARK   41  A    between atoms: _94  and  _97
REMARK   42  A    between atoms: _100  and  _102
REMARK   43  A    between atoms: _102  and  _103
REMARK   44  A    between atoms: _102  and  _105
REMARK   45  A    between atoms: _105  and  _106
REMARK   46  A    between atoms: _106  and  _107
REMARK   47  A    between atoms: _109  and  _111
REMARK   48  A    between atoms: _111  and  _112
REMARK   49  A    between atoms: _111  and  _114
REMARK   50  A    between atoms: _114  and  _115
REMARK   51  A    between atoms: _118  and  _120
REMARK   52  A    between atoms: _120  and  _121
REMARK   53  A    between atoms: _123  and  _125
REMARK   54  A    between atoms: _125  and  _126
REMARK   55  A    between atoms: _128  and  _130
REMARK   56  A    between atoms: _130  and  _131
REMARK   57  A    between atoms: _130  and  _133
REMARK   58  A    between atoms: _133  and  _134
REMARK   59  A    between atoms: _137  and  _139
REMARK   60  A    between atoms: _139  and  _140
REMARK   61  A    between atoms: _142  and  _144
REMARK   62  A    between atoms: _144  and  _145
REMARK   63  A    between atoms: _147  and  _149
REMARK   64  A    between atoms: _149  and  _150
REMARK   65  A    between atoms: _149  and  _152
REMARK   66  A    between atoms: _152  and  _153
REMARK   67  A    between atoms: _159  and  _161
REMARK   68  A    between atoms: _161  and  _162
REMARK   69  A    between atoms: _161  and  _164
REMARK   70  A    between atoms: _164  and  _165
REMARK   71  A    between atoms: _168  and  _170
REMARK   72  A    between atoms: _170  and  _171
REMARK   73  A    between atoms: _170  and  _173
REMARK   74  A    between atoms: _173  and  _174
REMARK   75  A    between atoms: _177  and  _179
REMARK   76  A    between atoms: _179  and  _180
REMARK   77  A    between atoms: _179  and  _182
REMARK   78  A    between atoms: _182  and  _183
REMARK   79  A    between atoms: _187  and  _188
REMARK   80  A    between atoms: _193  and  _195
REMARK   81  A    between atoms: _195  and  _196
REMARK   82  A    between atoms: _195  and  _198
REMARK   83  A    between atoms: _201  and  _203
REMARK   84  A    between atoms: _203  and  _204
REMARK   85  A    between atoms: _203  and  _206
REMARK   86  A    between atoms: _206  and  _207
REMARK   87  A    between atoms: _212  and  _214
REMARK   88  A    between atoms: _214  and  _215
REMARK   89  A    between atoms: _214  and  _217
REMARK   90  A    between atoms: _217  and  _218
REMARK   91  A    between atoms: _221  and  _223
REMARK   92  A    between atoms: _223  and  _224
REMARK   93  A    between atoms: _223  and  _226
REMARK   94  A    between atoms: _226  and  _227
REMARK   95  A    between atoms: _230  and  _232
REMARK   96  A    between atoms: _232  and  _233
REMARK   97  A    between atoms: _235  and  _237
REMARK   98  A    between atoms: _237  and  _238
REMARK   99  A    between atoms: _237  and  _240
REMARK  100  A    between atoms: _240  and  _241
REMARK  101  A    between atoms: _241  and  _242
REMARK  102  A    between atoms: _242  and  _243
REMARK  103  A    between atoms: _252  and  _254
REMARK  104  A    between atoms: _254  and  _255
REMARK  105  A    between atoms: _254  and  _257
REMARK  106  A    between atoms: _257  and  _258
REMARK  107  A    between atoms: _258  and  _259
REMARK  108  A    between atoms: _259  and  _260
REMARK  109  A    between atoms: _269  and  _271
REMARK  110  A    between atoms: _271  and  _272
REMARK  111  A    between atoms: _271  and  _274
REMARK  112  A    between atoms: _274  and  _275
REMARK  113  A    between atoms: _278  and  _280
REMARK  114  A    between atoms: _280  and  _281
REMARK  115  A    between atoms: _280  and  _283
REMARK  116  A    between atoms: _283  and  _284
REMARK  117  A    between atoms: _287  and  _289
REMARK  118  A    between atoms: _289  and  _290
REMARK  119  A    between atoms: _289  and  _292
REMARK  120  A    between atoms: _292  and  _293
REMARK  121  A    between atoms: _296  and  _298
REMARK  122  A    between atoms: _298  and  _299
REMARK  123  A    between atoms: _298  and  _301
REMARK  124  A    between atoms: _301  and  _302
REMARK  125  A    between atoms: _305  and  _307
REMARK  126  A    between atoms: _307  and  _308
REMARK  127  A    between atoms: _307  and  _310
REMARK  128  A    between atoms: _310  and  _311
REMARK  129  A    between atoms: _314  and  _316
REMARK  130  A    between atoms: _316  and  _317
REMARK  131  A    between atoms: _319  and  _321
REMARK  132  A    between atoms: _321  and  _322
REMARK  133  A    between atoms: _325  and  _327
REMARK  134  A    between atoms: _327  and  _328
REMARK  135  A    between atoms: _327  and  _330
REMARK  136  A    between atoms: _330  and  _331
REMARK  137  A    between atoms: _334  and  _336
REMARK  138  A    between atoms: _336  and  _337
REMARK  139  A    between atoms: _336  and  _339
REMARK  140  A    between atoms: _339  and  _340
REMARK  141  A    between atoms: _343  and  _345
REMARK  142  A    between atoms: _345  and  _346
REMARK  143  A    between atoms: _345  and  _348
REMARK  144  A    between atoms: _348  and  _349
REMARK  145  A    between atoms: _352  and  _354
REMARK  146  A    between atoms: _354  and  _355
REMARK  147  A    between atoms: _354  and  _357
REMARK  148  A    between atoms: _360  and  _362
REMARK  149  A    between atoms: _362  and  _363
REMARK  150  A    between atoms: _362  and  _365
REMARK  151  A    between atoms: _365  and  _366
REMARK  152  A    between atoms: _366  and  _367
REMARK  153  A    between atoms: _367  and  _368
REMARK  154  A    between atoms: _368  and  _369
REMARK  155  A    between atoms: _373  and  _375
REMARK  156  A    between atoms: _375  and  _376
REMARK  157  A    between atoms: _375  and  _378
REMARK  158  A    between atoms: _378  and  _379
REMARK  159  A    between atoms: _379  and  _380
REMARK  160  A    between atoms: _382  and  _384
REMARK  161  A    between atoms: _384  and  _385
REMARK  162  A    between atoms: _384  and  _387
REMARK  163  A    between atoms: _387  and  _388
REMARK  164  A    between atoms: _391  and  _393
REMARK  165  A    between atoms: _393  and  _394
REMARK  166  A    between atoms: _396  and  _398
REMARK  167  A    between atoms: _398  and  _399
REMARK  168  A    between atoms: _401  and  _403
REMARK  169  A    between atoms: _403  and  _404
REMARK  170  A    between atoms: _403  and  _406
REMARK  171  A    between atoms: _406  and  _407
REMARK  172  A    between atoms: _410  and  _412
REMARK  173  A    between atoms: _412  and  _413
REMARK  174  A    between atoms: _415  and  _417
REMARK  175  A    between atoms: _417  and  _418
REMARK  176  A    between atoms: _420  and  _422
REMARK  177  A    between atoms: _422  and  _423
REMARK  178  A    between atoms: _422  and  _425
REMARK  179  A    between atoms: _425  and  _426
REMARK  180  A    between atoms: _432  and  _434
REMARK  181  A    between atoms: _434  and  _435
REMARK  182  A    between atoms: _434  and  _437
REMARK  183  A    between atoms: _437  and  _438
REMARK  184  A    between atoms: _441  and  _443
REMARK  185  A    between atoms: _443  and  _444
REMARK  186  A    between atoms: _443  and  _446
REMARK  187  A    between atoms: _446  and  _447
REMARK  188  A    between atoms: _450  and  _452
REMARK  189  A    between atoms: _452  and  _453
REMARK  190  A    between atoms: _452  and  _455
REMARK  191  A    between atoms: _455  and  _456
REMARK  192  A    between atoms: _460  and  _461
REMARK  193  A    between atoms: _466  and  _468
REMARK  194  A    between atoms: _468  and  _469
REMARK  195  A    between atoms: _468  and  _471
REMARK  196  A    between atoms: _474  and  _476
REMARK  197  A    between atoms: _476  and  _477
REMARK  198  A    between atoms: _476  and  _479
REMARK  199  A    between atoms: _479  and  _480
REMARK  200  A    between atoms: _485  and  _487
REMARK  201  A    between atoms: _487  and  _488
REMARK  202  A    between atoms: _487  and  _490
REMARK  203  A    between atoms: _490  and  _491
REMARK  204  A    between atoms: _494  and  _496
REMARK  205  A    between atoms: _496  and  _497
REMARK  206  A    between atoms: _496  and  _499
REMARK  207  A    between atoms: _499  and  _500
REMARK  208  A    between atoms: _503  and  _505
REMARK  209  A    between atoms: _505  and  _506
REMARK  210  A    between atoms: _508  and  _510
REMARK  211  A    between atoms: _510  and  _511
REMARK  212  A    between atoms: _510  and  _513
REMARK  213  A    between atoms: _513  and  _514
REMARK  214  A    between atoms: _514  and  _515
REMARK  215  A    between atoms: _515  and  _516
REMARK                            x       y       z     vdW  Elec       q    Type
REMARK                         _______ _______ _______ _____ _____    ______ ____
ROOT
ATOM      1  O   HOH     1       5.094   7.714  15.658  0.00  0.00    +0.000 OA
ENDROOT
TORSDOF 0
REMARK  Name = ../refined-set-2016/1b6k/1b6k_pocket.pdb
REMARK  215 active torsions:
REMARK  status: ('A' for Active; 'I' for Inactive)
REMARK    1  A    between atoms: _1  and  _3
REMARK    2  A    between atoms: _3  and  _4
REMARK    3  A    between atoms: _3  and  _6
REMARK    4  A    between atoms: _6  and  _7
REMARK    5  A    between atoms: _7  and  _8
REMARK    6  A    between atoms: _8  and  _9
REMARK    7  A    between atoms: _18  and  _20
REMARK    8  A    between atoms: _20  and  _21
REMARK    9  A    between atoms: _20  and  _23
REMARK   10  A    between atoms: _23  and  _24
REMARK   11  A    between atoms: _27  and  _29
REMARK   12  A    between atoms: _29  and  _30
REMARK   13  A    between atoms: _29  and  _32
REMARK   14  A    between atoms: _32  and  _33
REMARK   15  A    between atoms: _36  and  _38
REMARK   16  A    between atoms: _38  and  _39
REMARK   17  A    between atoms: _38  and  _41
REMARK   18  A    between atoms: _41  and  _42
REMARK   19  A    between atoms: _45  and  _47
REMARK   20  A    between atoms: _47  and  _48
REMARK   21  A    between atoms: _47  and  _50
REMARK   22  A    between atoms: _50  and  _51
REMARK   23  A    between atoms: _54  and  _56
REMARK   24  A    between atoms: _56  and  _57
REMARK   25  A    between atoms: _59  and  _61
REMARK   26  A    between atoms: _61  and  _62
REMARK   27  A    between atoms: _65  and  _67
REMARK   28  A    between atoms: _67  and  _68
REMARK   29  A    between atoms: _67  and  _70
REMARK   30  A    between atoms: _70  and  _71
REMARK   31  A    between atoms: _74  and  _76
REMARK   32  A    between atoms: _76  and  _77
REMARK   33  A    between atoms: _76  and  _79
REMARK   34  A    between atoms: _79  and  _80
REMARK   35  A    between atoms: _83  and  _85
REMARK   36  A    between atoms: _85  and  _86
REMARK   37  A    between atoms: _85  and  _88
REMARK   38  A    between atoms: _88  and  _89
REMARK   39  A    between atoms: _92  and  _94
REMARK   40  A    between atoms: _94  and  _95
REMARK   41  A    between atoms: _94  and  _97
REMARK   42  A    between atoms: _100  and  _102
REMARK   43  A    between atoms: _102  and  _103
REMARK   44  A    between atoms: _102  and  _105
REMARK   45  A    between atoms: _105  and  _106
REMARK   46  A    between atoms: _106  and  _107
REMARK   47  A    between atoms: _109  and  _111
REMARK   48  A    between atoms: _111  and  _112
REMARK   49  A    between atoms: _111  and  _114
REMARK   50  A    between atoms: _114  and  _115
REMARK   51  A    between atoms: _118  and  _120
REMARK   52  A    between atoms: _120  and  _121
REMARK   53  A    between atoms: _123  and  _125
REMARK   54  A    between atoms: _125  and  _126
REMARK   55  A    between atoms: _128  and  _130
REMARK   56  A    between atoms: _130  and  _131
REMARK   57  A    between atoms: _130  and  _133
REMARK   58  A    between atoms: _133  and  _134
REMARK   59  A    between atoms: _137  and  _139
REMARK   60  A    between atoms: _139  and  _140
REMARK   61  A    between atoms: _142  and  _144
REMARK   62  A    between atoms: _144  and  _145
REMARK   63  A    between atoms: _147  and  _149
REMARK   64  A    between atoms: _149  and  _150
REMARK   65  A    between atoms: _149  and  _152
REMARK   66  A    between atoms: _152  and  _153
REMARK   67  A    between atoms: _159  and  _161
REMARK   68  A    between atoms: _161  and  _162
REMARK   69  A    between atoms: _161  and  _164
REMARK   70  A    between atoms: _164  and  _165
REMARK   71  A    between atoms: _168  and  _170
REMARK   72  A    between atoms: _170  and  _171
REMARK   73  A    between atoms: _170  and  _173
REMARK   74  A    between atoms: _173  and  _174
REMARK   75  A    between atoms: _177  and  _179
REMARK   76  A    between atoms: _179  and  _180
REMARK   77  A    between atoms: _179  and  _182
REMARK   78  A    between atoms: _182  and  _183
REMARK   79  A    between atoms: _187  and  _188
REMARK   80  A    between atoms: _193  and  _195
REMARK   81  A    between atoms: _195  and  _196
REMARK   82  A    between atoms: _195  and  _198
REMARK   83  A    between atoms: _201  and  _203
REMARK   84  A    between atoms: _203  and  _204
REMARK   85  A    between atoms: _203  and  _206
REMARK   86  A    between atoms: _206  and  _207
REMARK   87  A    between atoms: _212  and  _214
REMARK   88  A    between atoms: _214  and  _215
REMARK   89  A    between atoms: _214  and  _217
REMARK   90  A    between atoms: _217  and  _218
REMARK   91  A    between atoms: _221  and  _223
REMARK   92  A    between atoms: _223  and  _224
REMARK   93  A    between atoms: _223  and  _226
REMARK   94  A    between atoms: _226  and  _227
REMARK   95  A    between atoms: _230  and  _232
REMARK   96  A    between atoms: _232  and  _233
REMARK   97  A    between atoms: _235  and  _237
REMARK   98  A    between atoms: _237  and  _238
REMARK   99  A    between atoms: _237  and  _240
REMARK  100  A    between atoms: _240  and  _241
REMARK  101  A    between atoms: _241  and  _242
REMARK  102  A    between atoms: _242  and  _243
REMARK  103  A    between atoms: _252  and  _254
REMARK  104  A    between atoms: _254  and  _255
REMARK  105  A    between atoms: _254  and  _257
REMARK  106  A    between atoms: _257  and  _258
REMARK  107  A    between atoms: _258  and  _259
REMARK  108  A    between atoms: _259  and  _260
REMARK  109  A    between atoms: _269  and  _271
REMARK  110  A    between atoms: _271  and  _272
REMARK  111  A    between atoms: _271  and  _274
REMARK  112  A    between atoms: _274  and  _275
REMARK  113  A    between atoms: _278  and  _280
REMARK  114  A    between atoms: _280  and  _281
REMARK  115  A    between atoms: _280  and  _283
REMARK  116  A    between atoms: _283  and  _284
REMARK  117  A    between atoms: _287  and  _289
REMARK  118  A    between atoms: _289  and  _290
REMARK  119  A    between atoms: _289  and  _292
REMARK  120  A    between atoms: _292  and  _293
REMARK  121  A    between atoms: _296  and  _298
REMARK  122  A    between atoms: _298  and  _299
REMARK  123  A    between atoms: _298  and  _301
REMARK  124  A    between atoms: _301  and  _302
REMARK  125  A    between atoms: _305  and  _307
REMARK  126  A    between atoms: _307  and  _308
REMARK  127  A    between atoms: _307  and  _310
REMARK  128  A    between atoms: _310  and  _311
REMARK  129  A    between atoms: _314  and  _316
REMARK  130  A    between atoms: _316  and  _317
REMARK  131  A    between atoms: _319  and  _321
REMARK  132  A    between atoms: _321  and  _322
REMARK  133  A    between atoms: _325  and  _327
REMARK  134  A    between atoms: _327  and  _328
REMARK  135  A    between atoms: _327  and  _330
REMARK  136  A    between atoms: _330  and  _331
REMARK  137  A    between atoms: _334  and  _336
REMARK  138  A    between atoms: _336  and  _337
REMARK  139  A    between atoms: _336  and  _339
REMARK  140  A    between atoms: _339  and  _340
REMARK  141  A    between atoms: _343  and  _345
REMARK  142  A    between atoms: _345  and  _346
REMARK  143  A    between atoms: _345  and  _348
REMARK  144  A    between atoms: _348  and  _349
REMARK  145  A    between atoms: _352  and  _354
REMARK  146  A    between atoms: _354  and  _355
REMARK  147  A    between atoms: _354  and  _357
REMARK  148  A    between atoms: _360  and  _362
REMARK  149  A    between atoms: _362  and  _363
REMARK  150  A    between atoms: _362  and  _365
REMARK  151  A    between atoms: _365  and  _366
REMARK  152  A    between atoms: _366  and  _367
REMARK  153  A    between atoms: _367  and  _368
REMARK  154  A    between atoms: _368  and  _369
REMARK  155  A    between atoms: _373  and  _375
REMARK  156  A    between atoms: _375  and  _376
REMARK  157  A    between atoms: _375  and  _378
REMARK  158  A    between atoms: _378  and  _379
REMARK  159  A    between atoms: _379  and  _380
REMARK  160  A    between atoms: _382  and  _384
REMARK  161  A    between atoms: _384  and  _385
REMARK  162  A    between atoms: _384  and  _387
REMARK  163  A    between atoms: _387  and  _388
REMARK  164  A    between atoms: _391  and  _393
REMARK  165  A    between atoms: _393  and  _394
REMARK  166  A    between atoms: _396  and  _398
REMARK  167  A    between atoms: _398  and  _399
REMARK  168  A    between atoms: _401  and  _403
REMARK  169  A    between atoms: _403  and  _404
REMARK  170  A    between atoms: _403  and  _406
REMARK  171  A    between atoms: _406  and  _407
REMARK  172  A    between atoms: _410  and  _412
REMARK  173  A    between atoms: _412  and  _413
REMARK  174  A    between atoms: _415  and  _417
REMARK  175  A    between atoms: _417  and  _418
REMARK  176  A    between atoms: _420  and  _422
REMARK  177  A    between atoms: _422  and  _423
REMARK  178  A    between atoms: _422  and  _425
REMARK  179  A    between atoms: _425  and  _426
REMARK  180  A    between atoms: _432  and  _434
REMARK  181  A    between atoms: _434  and  _435
REMARK  182  A    between atoms: _434  and  _437
REMARK  183  A    between atoms: _437  and  _438
REMARK  184  A    between atoms: _441  and  _443
REMARK  185  A    between atoms: _443  and  _444
REMARK  186  A    between atoms: _443  and  _446
REMARK  187  A    between atoms: _446  and  _447
REMARK  188  A    between atoms: _450  and  _452
REMARK  189  A    between atoms: _452  and  _453
REMARK  190  A    between atoms: _452  and  _455
REMARK  191  A    between atoms: _455  and  _456
REMARK  192  A    between atoms: _460  and  _461
REMARK  193  A    between atoms: _466  and  _468
REMARK  194  A    between atoms: _468  and  _469
REMARK  195  A    between atoms: _468  and  _471
REMARK  196  A    between atoms: _474  and  _476
REMARK  197  A    between atoms: _476  and  _477
REMARK  198  A    between atoms: _476  and  _479
REMARK  199  A    between atoms: _479  and  _480
REMARK  200  A    between atoms: _485  and  _487
REMARK  201  A    between atoms: _487  and  _488
REMARK  202  A    between atoms: _487  and  _490
REMARK  203  A    between atoms: _490  and  _491
REMARK  204  A    between atoms: _494  and  _496
REMARK  205  A    between atoms: _496  and  _497
REMARK  206  A    between atoms: _496  and  _499
REMARK  207  A    between atoms: _499  and  _500
REMARK  208  A    between atoms: _503  and  _505
REMARK  209  A    between atoms: _505  and  _506
REMARK  210  A    between atoms: _508  and  _510
REMARK  211  A    between atoms: _510  and  _511
REMARK  212  A    between atoms: _510  and  _513
REMARK  213  A    between atoms: _513  and  _514
REMARK  214  A    between atoms: _514  and  _515
REMARK  215  A    between atoms: _515  and  _516
REMARK                            x       y       z     vdW  Elec       q    Type
REMARK                         _______ _______ _______ _____ _____    ______ ____
ROOT
ATOM      1  O   HOH     1      -5.812   5.834  11.890  0.00  0.00    +0.000 OA
ENDROOT
TORSDOF 0
REMARK  Name = ../refined-set-2016/1b6k/1b6k_pocket.pdb
REMARK  215 active torsions:
REMARK  status: ('A' for Active; 'I' for Inactive)
REMARK    1  A    between atoms: _1  and  _3
REMARK    2  A    between atoms: _3  and  _4
REMARK    3  A    between atoms: _3  and  _6
REMARK    4  A    between atoms: _6  and  _7
REMARK    5  A    between atoms: _7  and  _8
REMARK    6  A    between atoms: _8  and  _9
REMARK    7  A    between atoms: _18  and  _20
REMARK    8  A    between atoms: _20  and  _21
REMARK    9  A    between atoms: _20  and  _23
REMARK   10  A    between atoms: _23  and  _24
REMARK   11  A    between atoms: _27  and  _29
REMARK   12  A    between atoms: _29  and  _30
REMARK   13  A    between atoms: _29  and  _32
REMARK   14  A    between atoms: _32  and  _33
REMARK   15  A    between atoms: _36  and  _38
REMARK   16  A    between atoms: _38  and  _39
REMARK   17  A    between atoms: _38  and  _41
REMARK   18  A    between atoms: _41  and  _42
REMARK   19  A    between atoms: _45  and  _47
REMARK   20  A    between atoms: _47  and  _48
REMARK   21  A    between atoms: _47  and  _50
REMARK   22  A    between atoms: _50  and  _51
REMARK   23  A    between atoms: _54  and  _56
REMARK   24  A    between atoms: _56  and  _57
REMARK   25  A    between atoms: _59  and  _61
REMARK   26  A    between atoms: _61  and  _62
REMARK   27  A    between atoms: _65  and  _67
REMARK   28  A    between atoms: _67  and  _68
REMARK   29  A    between atoms: _67  and  _70
REMARK   30  A    between atoms: _70  and  _71
REMARK   31  A    between atoms: _74  and  _76
REMARK   32  A    between atoms: _76  and  _77
REMARK   33  A    between atoms: _76  and  _79
REMARK   34  A    between atoms: _79  and  _80
REMARK   35  A    between atoms: _83  and  _85
REMARK   36  A    between atoms: _85  and  _86
REMARK   37  A    between atoms: _85  and  _88
REMARK   38  A    between atoms: _88  and  _89
REMARK   39  A    between atoms: _92  and  _94
REMARK   40  A    between atoms: _94  and  _95
REMARK   41  A    between atoms: _94  and  _97
REMARK   42  A    between atoms: _100  and  _102
REMARK   43  A    between atoms: _102  and  _103
REMARK   44  A    between atoms: _102  and  _105
REMARK   45  A    between atoms: _105  and  _106
REMARK   46  A    between atoms: _106  and  _107
REMARK   47  A    between atoms: _109  and  _111
REMARK   48  A    between atoms: _111  and  _112
REMARK   49  A    between atoms: _111  and  _114
REMARK   50  A    between atoms: _114  and  _115
REMARK   51  A    between atoms: _118  and  _120
REMARK   52  A    between atoms: _120  and  _121
REMARK   53  A    between atoms: _123  and  _125
REMARK   54  A    between atoms: _125  and  _126
REMARK   55  A    between atoms: _128  and  _130
REMARK   56  A    between atoms: _130  and  _131
REMARK   57  A    between atoms: _130  and  _133
REMARK   58  A    between atoms: _133  and  _134
REMARK   59  A    between atoms: _137  and  _139
REMARK   60  A    between atoms: _139  and  _140
REMARK   61  A    between atoms: _142  and  _144
REMARK   62  A    between atoms: _144  and  _145
REMARK   63  A    between atoms: _147  and  _149
REMARK   64  A    between atoms: _149  and  _150
REMARK   65  A    between atoms: _149  and  _152
REMARK   66  A    between atoms: _152  and  _153
REMARK   67  A    between atoms: _159  and  _161
REMARK   68  A    between atoms: _161  and  _162
REMARK   69  A    between atoms: _161  and  _164
REMARK   70  A    between atoms: _164  and  _165
REMARK   71  A    between atoms: _168  and  _170
REMARK   72  A    between atoms: _170  and  _171
REMARK   73  A    between atoms: _170  and  _173
REMARK   74  A    between atoms: _173  and  _174
REMARK   75  A    between atoms: _177  and  _179
REMARK   76  A    between atoms: _179  and  _180
REMARK   77  A    between atoms: _179  and  _182
REMARK   78  A    between atoms: _182  and  _183
REMARK   79  A    between atoms: _187  and  _188
REMARK   80  A    between atoms: _193  and  _195
REMARK   81  A    between atoms: _195  and  _196
REMARK   82  A    between atoms: _195  and  _198
REMARK   83  A    between atoms: _201  and  _203
REMARK   84  A    between atoms: _203  and  _204
REMARK   85  A    between atoms: _203  and  _206
REMARK   86  A    between atoms: _206  and  _207
REMARK   87  A    between atoms: _212  and  _214
REMARK   88  A    between atoms: _214  and  _215
REMARK   89  A    between atoms: _214  and  _217
REMARK   90  A    between atoms: _217  and  _218
REMARK   91  A    between atoms: _221  and  _223
REMARK   92  A    between atoms: _223  and  _224
REMARK   93  A    between atoms: _223  and  _226
REMARK   94  A    between atoms: _226  and  _227
REMARK   95  A    between atoms: _230  and  _232
REMARK   96  A    between atoms: _232  and  _233
REMARK   97  A    between atoms: _235  and  _237
REMARK   98  A    between atoms: _237  and  _238
REMARK   99  A    between atoms: _237  and  _240
REMARK  100  A    between atoms: _240  and  _241
REMARK  101  A    between atoms: _241  and  _242
REMARK  102  A    between atoms: _242  and  _243
REMARK  103  A    between atoms: _252  and  _254
REMARK  104  A    between atoms: _254  and  _255
REMARK  105  A    between atoms: _254  and  _257
REMARK  106  A    between atoms: _257  and  _258
REMARK  107  A    between atoms: _258  and  _259
REMARK  108  A    between atoms: _259  and  _260
REMARK  109  A    between atoms: _269  and  _271
REMARK  110  A    between atoms: _271  and  _272
REMARK  111  A    between atoms: _271  and  _274
REMARK  112  A    between atoms: _274  and  _275
REMARK  113  A    between atoms: _278  and  _280
REMARK  114  A    between atoms: _280  and  _281
REMARK  115  A    between atoms: _280  and  _283
REMARK  116  A    between atoms: _283  and  _284
REMARK  117  A    between atoms: _287  and  _289
REMARK  118  A    between atoms: _289  and  _290
REMARK  119  A    between atoms: _289  and  _292
REMARK  120  A    between atoms: _292  and  _293
REMARK  121  A    between atoms: _296  and  _298
REMARK  122  A    between atoms: _298  and  _299
REMARK  123  A    between atoms: _298  and  _301
REMARK  124  A    between atoms: _301  and  _302
REMARK  125  A    between atoms: _305  and  _307
REMARK  126  A    between atoms: _307  and  _308
REMARK  127  A    between atoms: _307  and  _310
REMARK  128  A    between atoms: _310  and  _311
REMARK  129  A    between atoms: _314  and  _316
REMARK  130  A    between atoms: _316  and  _317
REMARK  131  A    between atoms: _319  and  _321
REMARK  132  A    between atoms: _321  and  _322
REMARK  133  A    between atoms: _325  and  _327
REMARK  134  A    between atoms: _327  and  _328
REMARK  135  A    between atoms: _327  and  _330
REMARK  136  A    between atoms: _330  and  _331
REMARK  137  A    between atoms: _334  and  _336
REMARK  138  A    between atoms: _336  and  _337
REMARK  139  A    between atoms: _336  and  _339
REMARK  140  A    between atoms: _339  and  _340
REMARK  141  A    between atoms: _343  and  _345
REMARK  142  A    between atoms: _345  and  _346
REMARK  143  A    between atoms: _345  and  _348
REMARK  144  A    between atoms: _348  and  _349
REMARK  145  A    between atoms: _352  and  _354
REMARK  146  A    between atoms: _354  and  _355
REMARK  147  A    between atoms: _354  and  _357
REMARK  148  A    between atoms: _360  and  _362
REMARK  149  A    between atoms: _362  and  _363
REMARK  150  A    between atoms: _362  and  _365
REMARK  151  A    between atoms: _365  and  _366
REMARK  152  A    between atoms: _366  and  _367
REMARK  153  A    between atoms: _367  and  _368
REMARK  154  A    between atoms: _368  and  _369
REMARK  155  A    between atoms: _373  and  _375
REMARK  156  A    between atoms: _375  and  _376
REMARK  157  A    between atoms: _375  and  _378
REMARK  158  A    between atoms: _378  and  _379
REMARK  159  A    between atoms: _379  and  _380
REMARK  160  A    between atoms: _382  and  _384
REMARK  161  A    between atoms: _384  and  _385
REMARK  162  A    between atoms: _384  and  _387
REMARK  163  A    between atoms: _387  and  _388
REMARK  164  A    between atoms: _391  and  _393
REMARK  165  A    between atoms: _393  and  _394
REMARK  166  A    between atoms: _396  and  _398
REMARK  167  A    between atoms: _398  and  _399
REMARK  168  A    between atoms: _401  and  _403
REMARK  169  A    between atoms: _403  and  _404
REMARK  170  A    between atoms: _403  and  _406
REMARK  171  A    between atoms: _406  and  _407
REMARK  172  A    between atoms: _410  and  _412
REMARK  173  A    between atoms: _412  and  _413
REMARK  174  A    between atoms: _415  and  _417
REMARK  175  A    between atoms: _417  and  _418
REMARK  176  A    between atoms: _420  and  _422
REMARK  177  A    between atoms: _422  and  _423
REMARK  178  A    between atoms: _422  and  _425
REMARK  179  A    between atoms: _425  and  _426
REMARK  180  A    between atoms: _432  and  _434
REMARK  181  A    between atoms: _434  and  _435
REMARK  182  A    between atoms: _434  and  _437
REMARK  183  A    between atoms: _437  and  _438
REMARK  184  A    between atoms: _441  and  _443
REMARK  185  A    between atoms: _443  and  _444
REMARK  186  A    between atoms: _443  and  _446
REMARK  187  A    between atoms: _446  and  _447
REMARK  188  A    between atoms: _450  and  _452
REMARK  189  A    between atoms: _452  and  _453
REMARK  190  A    between atoms: _452  and  _455
REMARK  191  A    between atoms: _455  and  _456
REMARK  192  A    between atoms: _460  and  _461
REMARK  193  A    between atoms: _466  and  _468
REMARK  194  A    between atoms: _468  and  _469
REMARK  195  A    between atoms: _468  and  _471
REMARK  196  A    between atoms: _474  and  _476
REMARK  197  A    between atoms: _476  and  _477
REMARK  198  A    between atoms: _476  and  _479
REMARK  199  A    between atoms: _479  and  _480
REMARK  200  A    between atoms: _485  and  _487
REMARK  201  A    between atoms: _487  and  _488
REMARK  202  A    between atoms: _487  and  _490
REMARK  203  A    between atoms: _490  and  _491
REMARK  204  A    between atoms: _494  and  _496
REMARK  205  A    between atoms: _496  and  _497
REMARK  206  A    between atoms: _496  and  _499
REMARK  207  A    between atoms: _499  and  _500
REMARK  208  A    between atoms: _503  and  _505
REMARK  209  A    between atoms: _505  and  _506
REMARK  210  A    between atoms: _508  and  _510
REMARK  211  A    between atoms: _510  and  _511
REMARK  212  A    between atoms: _510  and  _513
REMARK  213  A    between atoms: _513  and  _514
REMARK  214  A    between atoms: _514  and  _515
REMARK  215  A    between atoms: _515  and  _516
REMARK                            x       y       z     vdW  Elec       q    Type
REMARK                         _______ _______ _______ _____ _____    ______ ____
ROOT
ATOM      1  O   HOH     1       1.218   7.737   8.271  0.00  0.00    +0.000 OA
ENDROOT
TORSDOF 0
REMARK  Name = ../refined-set-2016/1b6k/1b6k_pocket.pdb
REMARK  215 active torsions:
REMARK  status: ('A' for Active; 'I' for Inactive)
REMARK    1  A    between atoms: _1  and  _3
REMARK    2  A    between atoms: _3  and  _4
REMARK    3  A    between atoms: _3  and  _6
REMARK    4  A    between atoms: _6  and  _7
REMARK    5  A    between atoms: _7  and  _8
REMARK    6  A    between atoms: _8  and  _9
REMARK    7  A    between atoms: _18  and  _20
REMARK    8  A    between atoms: _20  and  _21
REMARK    9  A    between atoms: _20  and  _23
REMARK   10  A    between atoms: _23  and  _24
REMARK   11  A    between atoms: _27  and  _29
REMARK   12  A    between atoms: _29  and  _30
REMARK   13  A    between atoms: _29  and  _32
REMARK   14  A    between atoms: _32  and  _33
REMARK   15  A    between atoms: _36  and  _38
REMARK   16  A    between atoms: _38  and  _39
REMARK   17  A    between atoms: _38  and  _41
REMARK   18  A    between atoms: _41  and  _42
REMARK   19  A    between atoms: _45  and  _47
REMARK   20  A    between atoms: _47  and  _48
REMARK   21  A    between atoms: _47  and  _50
REMARK   22  A    between atoms: _50  and  _51
REMARK   23  A    between atoms: _54  and  _56
REMARK   24  A    between atoms: _56  and  _57
REMARK   25  A    between atoms: _59  and  _61
REMARK   26  A    between atoms: _61  and  _62
REMARK   27  A    between atoms: _65  and  _67
REMARK   28  A    between atoms: _67  and  _68
REMARK   29  A    between atoms: _67  and  _70
REMARK   30  A    between atoms: _70  and  _71
REMARK   31  A    between atoms: _74  and  _76
REMARK   32  A    between atoms: _76  and  _77
REMARK   33  A    between atoms: _76  and  _79
REMARK   34  A    between atoms: _79  and  _80
REMARK   35  A    between atoms: _83  and  _85
REMARK   36  A    between atoms: _85  and  _86
REMARK   37  A    between atoms: _85  and  _88
REMARK   38  A    between atoms: _88  and  _89
REMARK   39  A    between atoms: _92  and  _94
REMARK   40  A    between atoms: _94  and  _95
REMARK   41  A    between atoms: _94  and  _97
REMARK   42  A    between atoms: _100  and  _102
REMARK   43  A    between atoms: _102  and  _103
REMARK   44  A    between atoms: _102  and  _105
REMARK   45  A    between atoms: _105  and  _106
REMARK   46  A    between atoms: _106  and  _107
REMARK   47  A    between atoms: _109  and  _111
REMARK   48  A    between atoms: _111  and  _112
REMARK   49  A    between atoms: _111  and  _114
REMARK   50  A    between atoms: _114  and  _115
REMARK   51  A    between atoms: _118  and  _120
REMARK   52  A    between atoms: _120  and  _121
REMARK   53  A    between atoms: _123  and  _125
REMARK   54  A    between atoms: _125  and  _126
REMARK   55  A    between atoms: _128  and  _130
REMARK   56  A    between atoms: _130  and  _131
REMARK   57  A    between atoms: _130  and  _133
REMARK   58  A    between atoms: _133  and  _134
REMARK   59  A    between atoms: _137  and  _139
REMARK   60  A    between atoms: _139  and  _140
REMARK   61  A    between atoms: _142  and  _144
REMARK   62  A    between atoms: _144  and  _145
REMARK   63  A    between atoms: _147  and  _149
REMARK   64  A    between atoms: _149  and  _150
REMARK   65  A    between atoms: _149  and  _152
REMARK   66  A    between atoms: _152  and  _153
REMARK   67  A    between atoms: _159  and  _161
REMARK   68  A    between atoms: _161  and  _162
REMARK   69  A    between atoms: _161  and  _164
REMARK   70  A    between atoms: _164  and  _165
REMARK   71  A    between atoms: _168  and  _170
REMARK   72  A    between atoms: _170  and  _171
REMARK   73  A    between atoms: _170  and  _173
REMARK   74  A    between atoms: _173  and  _174
REMARK   75  A    between atoms: _177  and  _179
REMARK   76  A    between atoms: _179  and  _180
REMARK   77  A    between atoms: _179  and  _182
REMARK   78  A    between atoms: _182  and  _183
REMARK   79  A    between atoms: _187  and  _188
REMARK   80  A    between atoms: _193  and  _195
REMARK   81  A    between atoms: _195  and  _196
REMARK   82  A    between atoms: _195  and  _198
REMARK   83  A    between atoms: _201  and  _203
REMARK   84  A    between atoms: _203  and  _204
REMARK   85  A    between atoms: _203  and  _206
REMARK   86  A    between atoms: _206  and  _207
REMARK   87  A    between atoms: _212  and  _214
REMARK   88  A    between atoms: _214  and  _215
REMARK   89  A    between atoms: _214  and  _217
REMARK   90  A    between atoms: _217  and  _218
REMARK   91  A    between atoms: _221  and  _223
REMARK   92  A    between atoms: _223  and  _224
REMARK   93  A    between atoms: _223  and  _226
REMARK   94  A    between atoms: _226  and  _227
REMARK   95  A    between atoms: _230  and  _232
REMARK   96  A    between atoms: _232  and  _233
REMARK   97  A    between atoms: _235  and  _237
REMARK   98  A    between atoms: _237  and  _238
REMARK   99  A    between atoms: _237  and  _240
REMARK  100  A    between atoms: _240  and  _241
REMARK  101  A    between atoms: _241  and  _242
REMARK  102  A    between atoms: _242  and  _243
REMARK  103  A    between atoms: _252  and  _254
REMARK  104  A    between atoms: _254  and  _255
REMARK  105  A    between atoms: _254  and  _257
REMARK  106  A    between atoms: _257  and  _258
REMARK  107  A    between atoms: _258  and  _259
REMARK  108  A    between atoms: _259  and  _260
REMARK  109  A    between atoms: _269  and  _271
REMARK  110  A    between atoms: _271  and  _272
REMARK  111  A    between atoms: _271  and  _274
REMARK  112  A    between atoms: _274  and  _275
REMARK  113  A    between atoms: _278  and  _280
REMARK  114  A    between atoms: _280  and  _281
REMARK  115  A    between atoms: _280  and  _283
REMARK  116  A    between atoms: _283  and  _284
REMARK  117  A    between atoms: _287  and  _289
REMARK  118  A    between atoms: _289  and  _290
REMARK  119  A    between atoms: _289  and  _292
REMARK  120  A    between atoms: _292  and  _293
REMARK  121  A    between atoms: _296  and  _298
REMARK  122  A    between atoms: _298  and  _299
REMARK  123  A    between atoms: _298  and  _301
REMARK  124  A    between atoms: _301  and  _302
REMARK  125  A    between atoms: _305  and  _307
REMARK  126  A    between atoms: _307  and  _308
REMARK  127  A    between atoms: _307  and  _310
REMARK  128  A    between atoms: _310  and  _311
REMARK  129  A    between atoms: _314  and  _316
REMARK  130  A    between atoms: _316  and  _317
REMARK  131  A    between atoms: _319  and  _321
REMARK  132  A    between atoms: _321  and  _322
REMARK  133  A    between atoms: _325  and  _327
REMARK  134  A    between atoms: _327  and  _328
REMARK  135  A    between atoms: _327  and  _330
REMARK  136  A    between atoms: _330  and  _331
REMARK  137  A    between atoms: _334  and  _336
REMARK  138  A    between atoms: _336  and  _337
REMARK  139  A    between atoms: _336  and  _339
REMARK  140  A    between atoms: _339  and  _340
REMARK  141  A    between atoms: _343  and  _345
REMARK  142  A    between atoms: _345  and  _346
REMARK  143  A    between atoms: _345  and  _348
REMARK  144  A    between atoms: _348  and  _349
REMARK  145  A    between atoms: _352  and  _354
REMARK  146  A    between atoms: _354  and  _355
REMARK  147  A    between atoms: _354  and  _357
REMARK  148  A    between atoms: _360  and  _362
REMARK  149  A    between atoms: _362  and  _363
REMARK  150  A    between atoms: _362  and  _365
REMARK  151  A    between atoms: _365  and  _366
REMARK  152  A    between atoms: _366  and  _367
REMARK  153  A    between atoms: _367  and  _368
REMARK  154  A    between atoms: _368  and  _369
REMARK  155  A    between atoms: _373  and  _375
REMARK  156  A    between atoms: _375  and  _376
REMARK  157  A    between atoms: _375  and  _378
REMARK  158  A    between atoms: _378  and  _379
REMARK  159  A    between atoms: _379  and  _380
REMARK  160  A    between atoms: _382  and  _384
REMARK  161  A    between atoms: _384  and  _385
REMARK  162  A    between atoms: _384  and  _387
REMARK  163  A    between atoms: _387  and  _388
REMARK  164  A    between atoms: _391  and  _393
REMARK  165  A    between atoms: _393  and  _394
REMARK  166  A    between atoms: _396  and  _398
REMARK  167  A    between atoms: _398  and  _399
REMARK  168  A    between atoms: _401  and  _403
REMARK  169  A    between atoms: _403  and  _404
REMARK  170  A    between atoms: _403  and  _406
REMARK  171  A    between atoms: _406  and  _407
REMARK  172  A    between atoms: _410  and  _412
REMARK  173  A    between atoms: _412  and  _413
REMARK  174  A    between atoms: _415  and  _417
REMARK  175  A    between atoms: _417  and  _418
REMARK  176  A    between atoms: _420  and  _422
REMARK  177  A    between atoms: _422  and  _423
REMARK  178  A    between atoms: _422  and  _425
REMARK  179  A    between atoms: _425  and  _426
REMARK  180  A    between atoms: _432  and  _434
REMARK  181  A    between atoms: _434  and  _435
REMARK  182  A    between atoms: _434  and  _437
REMARK  183  A    between atoms: _437  and  _438
REMARK  184  A    between atoms: _441  and  _443
REMARK  185  A    between atoms: _443  and  _444
REMARK  186  A    between atoms: _443  and  _446
REMARK  187  A    between atoms: _446  and  _447
REMARK  188  A    between atoms: _450  and  _452
REMARK  189  A    between atoms: _452  and  _453
REMARK  190  A    between atoms: _452  and  _455
REMARK  191  A    between atoms: _455  and  _456
REMARK  192  A    between atoms: _460  and  _461
REMARK  193  A    between atoms: _466  and  _468
REMARK  194  A    between atoms: _468  and  _469
REMARK  195  A    between atoms: _468  and  _471
REMARK  196  A    between atoms: _474  and  _476
REMARK  197  A    between atoms: _476  and  _477
REMARK  198  A    between atoms: _476  and  _479
REMARK  199  A    between atoms: _479  and  _480
REMARK  200  A    between atoms: _485  and  _487
REMARK  201  A    between atoms: _487  and  _488
REMARK  202  A    between atoms: _487  and  _490
REMARK  203  A    between atoms: _490  and  _491
REMARK  204  A    between atoms: _494  and  _496
REMARK  205  A    between atoms: _496  and  _497
REMARK  206  A    between atoms: _496  and  _499
REMARK  207  A    between atoms: _499  and  _500
REMARK  208  A    between atoms: _503  and  _505
REMARK  209  A    between atoms: _505  and  _506
REMARK  210  A    between atoms: _508  and  _510
REMARK  211  A    between atoms: _510  and  _511
REMARK  212  A    between atoms: _510  and  _513
REMARK  213  A    between atoms: _513  and  _514
REMARK  214  A    between atoms: _514  and  _515
REMARK  215  A    between atoms: _515  and  _516
REMARK                            x       y       z     vdW  Elec       q    Type
REMARK                         _______ _______ _______ _____ _____    ______ ____
ROOT
ATOM      1  O   HOH     1       5.629   6.212  13.382  0.00  0.00    +0.000 OA
ENDROOT
TORSDOF 0
REMARK  Name = ../refined-set-2016/1b6k/1b6k_pocket.pdb
REMARK  215 active torsions:
REMARK  status: ('A' for Active; 'I' for Inactive)
REMARK    1  A    between atoms: _1  and  _3
REMARK    2  A    between atoms: _3  and  _4
REMARK    3  A    between atoms: _3  and  _6
REMARK    4  A    between atoms: _6  and  _7
REMARK    5  A    between atoms: _7  and  _8
REMARK    6  A    between atoms: _8  and  _9
REMARK    7  A    between atoms: _18  and  _20
REMARK    8  A    between atoms: _20  and  _21
REMARK    9  A    between atoms: _20  and  _23
REMARK   10  A    between atoms: _23  and  _24
REMARK   11  A    between atoms: _27  and  _29
REMARK   12  A    between atoms: _29  and  _30
REMARK   13  A    between atoms: _29  and  _32
REMARK   14  A    between atoms: _32  and  _33
REMARK   15  A    between atoms: _36  and  _38
REMARK   16  A    between atoms: _38  and  _39
REMARK   17  A    between atoms: _38  and  _41
REMARK   18  A    between atoms: _41  and  _42
REMARK   19  A    between atoms: _45  and  _47
REMARK   20  A    between atoms: _47  and  _48
REMARK   21  A    between atoms: _47  and  _50
REMARK   22  A    between atoms: _50  and  _51
REMARK   23  A    between atoms: _54  and  _56
REMARK   24  A    between atoms: _56  and  _57
REMARK   25  A    between atoms: _59  and  _61
REMARK   26  A    between atoms: _61  and  _62
REMARK   27  A    between atoms: _65  and  _67
REMARK   28  A    between atoms: _67  and  _68
REMARK   29  A    between atoms: _67  and  _70
REMARK   30  A    between atoms: _70  and  _71
REMARK   31  A    between atoms: _74  and  _76
REMARK   32  A    between atoms: _76  and  _77
REMARK   33  A    between atoms: _76  and  _79
REMARK   34  A    between atoms: _79  and  _80
REMARK   35  A    between atoms: _83  and  _85
REMARK   36  A    between atoms: _85  and  _86
REMARK   37  A    between atoms: _85  and  _88
REMARK   38  A    between atoms: _88  and  _89
REMARK   39  A    between atoms: _92  and  _94
REMARK   40  A    between atoms: _94  and  _95
REMARK   41  A    between atoms: _94  and  _97
REMARK   42  A    between atoms: _100  and  _102
REMARK   43  A    between atoms: _102  and  _103
REMARK   44  A    between atoms: _102  and  _105
REMARK   45  A    between atoms: _105  and  _106
REMARK   46  A    between atoms: _106  and  _107
REMARK   47  A    between atoms: _109  and  _111
REMARK   48  A    between atoms: _111  and  _112
REMARK   49  A    between atoms: _111  and  _114
REMARK   50  A    between atoms: _114  and  _115
REMARK   51  A    between atoms: _118  and  _120
REMARK   52  A    between atoms: _120  and  _121
REMARK   53  A    between atoms: _123  and  _125
REMARK   54  A    between atoms: _125  and  _126
REMARK   55  A    between atoms: _128  and  _130
REMARK   56  A    between atoms: _130  and  _131
REMARK   57  A    between atoms: _130  and  _133
REMARK   58  A    between atoms: _133  and  _134
REMARK   59  A    between atoms: _137  and  _139
REMARK   60  A    between atoms: _139  and  _140
REMARK   61  A    between atoms: _142  and  _144
REMARK   62  A    between atoms: _144  and  _145
REMARK   63  A    between atoms: _147  and  _149
REMARK   64  A    between atoms: _149  and  _150
REMARK   65  A    between atoms: _149  and  _152
REMARK   66  A    between atoms: _152  and  _153
REMARK   67  A    between atoms: _159  and  _161
REMARK   68  A    between atoms: _161  and  _162
REMARK   69  A    between atoms: _161  and  _164
REMARK   70  A    between atoms: _164  and  _165
REMARK   71  A    between atoms: _168  and  _170
REMARK   72  A    between atoms: _170  and  _171
REMARK   73  A    between atoms: _170  and  _173
REMARK   74  A    between atoms: _173  and  _174
REMARK   75  A    between atoms: _177  and  _179
REMARK   76  A    between atoms: _179  and  _180
REMARK   77  A    between atoms: _179  and  _182
REMARK   78  A    between atoms: _182  and  _183
REMARK   79  A    between atoms: _187  and  _188
REMARK   80  A    between atoms: _193  and  _195
REMARK   81  A    between atoms: _195  and  _196
REMARK   82  A    between atoms: _195  and  _198
REMARK   83  A    between atoms: _201  and  _203
REMARK   84  A    between atoms: _203  and  _204
REMARK   85  A    between atoms: _203  and  _206
REMARK   86  A    between atoms: _206  and  _207
REMARK   87  A    between atoms: _212  and  _214
REMARK   88  A    between atoms: _214  and  _215
REMARK   89  A    between atoms: _214  and  _217
REMARK   90  A    between atoms: _217  and  _218
REMARK   91  A    between atoms: _221  and  _223
REMARK   92  A    between atoms: _223  and  _224
REMARK   93  A    between atoms: _223  and  _226
REMARK   94  A    between atoms: _226  and  _227
REMARK   95  A    between atoms: _230  and  _232
REMARK   96  A    between atoms: _232  and  _233
REMARK   97  A    between atoms: _235  and  _237
REMARK   98  A    between atoms: _237  and  _238
REMARK   99  A    between atoms: _237  and  _240
REMARK  100  A    between atoms: _240  and  _241
REMARK  101  A    between atoms: _241  and  _242
REMARK  102  A    between atoms: _242  and  _243
REMARK  103  A    between atoms: _252  and  _254
REMARK  104  A    between atoms: _254  and  _255
REMARK  105  A    between atoms: _254  and  _257
REMARK  106  A    between atoms: _257  and  _258
REMARK  107  A    between atoms: _258  and  _259
REMARK  108  A    between atoms: _259  and  _260
REMARK  109  A    between atoms: _269  and  _271
REMARK  110  A    between atoms: _271  and  _272
REMARK  111  A    between atoms: _271  and  _274
REMARK  112  A    between atoms: _274  and  _275
REMARK  113  A    between atoms: _278  and  _280
REMARK  114  A    between atoms: _280  and  _281
REMARK  115  A    between atoms: _280  and  _283
REMARK  116  A    between atoms: _283  and  _284
REMARK  117  A    between atoms: _287  and  _289
REMARK  118  A    between atoms: _289  and  _290
REMARK  119  A    between atoms: _289  and  _292
REMARK  120  A    between atoms: _292  and  _293
REMARK  121  A    between atoms: _296  and  _298
REMARK  122  A    between atoms: _298  and  _299
REMARK  123  A    between atoms: _298  and  _301
REMARK  124  A    between atoms: _301  and  _302
REMARK  125  A    between atoms: _305  and  _307
REMARK  126  A    between atoms: _307  and  _308
REMARK  127  A    between atoms: _307  and  _310
REMARK  128  A    between atoms: _310  and  _311
REMARK  129  A    between atoms: _314  and  _316
REMARK  130  A    between atoms: _316  and  _317
REMARK  131  A    between atoms: _319  and  _321
REMARK  132  A    between atoms: _321  and  _322
REMARK  133  A    between atoms: _325  and  _327
REMARK  134  A    between atoms: _327  and  _328
REMARK  135  A    between atoms: _327  and  _330
REMARK  136  A    between atoms: _330  and  _331
REMARK  137  A    between atoms: _334  and  _336
REMARK  138  A    between atoms: _336  and  _337
REMARK  139  A    between atoms: _336  and  _339
REMARK  140  A    between atoms: _339  and  _340
REMARK  141  A    between atoms: _343  and  _345
REMARK  142  A    between atoms: _345  and  _346
REMARK  143  A    between atoms: _345  and  _348
REMARK  144  A    between atoms: _348  and  _349
REMARK  145  A    between atoms: _352  and  _354
REMARK  146  A    between atoms: _354  and  _355
REMARK  147  A    between atoms: _354  and  _357
REMARK  148  A    between atoms: _360  and  _362
REMARK  149  A    between atoms: _362  and  _363
REMARK  150  A    between atoms: _362  and  _365
REMARK  151  A    between atoms: _365  and  _366
REMARK  152  A    between atoms: _366  and  _367
REMARK  153  A    between atoms: _367  and  _368
REMARK  154  A    between atoms: _368  and  _369
REMARK  155  A    between atoms: _373  and  _375
REMARK  156  A    between atoms: _375  and  _376
REMARK  157  A    between atoms: _375  and  _378
REMARK  158  A    between atoms: _378  and  _379
REMARK  159  A    between atoms: _379  and  _380
REMARK  160  A    between atoms: _382  and  _384
REMARK  161  A    between atoms: _384  and  _385
REMARK  162  A    between atoms: _384  and  _387
REMARK  163  A    between atoms: _387  and  _388
REMARK  164  A    between atoms: _391  and  _393
REMARK  165  A    between atoms: _393  and  _394
REMARK  166  A    between atoms: _396  and  _398
REMARK  167  A    between atoms: _398  and  _399
REMARK  168  A    between atoms: _401  and  _403
REMARK  169  A    between atoms: _403  and  _404
REMARK  170  A    between atoms: _403  and  _406
REMARK  171  A    between atoms: _406  and  _407
REMARK  172  A    between atoms: _410  and  _412
REMARK  173  A    between atoms: _412  and  _413
REMARK  174  A    between atoms: _415  and  _417
REMARK  175  A    between atoms: _417  and  _418
REMARK  176  A    between atoms: _420  and  _422
REMARK  177  A    between atoms: _422  and  _423
REMARK  178  A    between atoms: _422  and  _425
REMARK  179  A    between atoms: _425  and  _426
REMARK  180  A    between atoms: _432  and  _434
REMARK  181  A    between atoms: _434  and  _435
REMARK  182  A    between atoms: _434  and  _437
REMARK  183  A    between atoms: _437  and  _438
REMARK  184  A    between atoms: _441  and  _443
REMARK  185  A    between atoms: _443  and  _444
REMARK  186  A    between atoms: _443  and  _446
REMARK  187  A    between atoms: _446  and  _447
REMARK  188  A    between atoms: _450  and  _452
REMARK  189  A    between atoms: _452  and  _453
REMARK  190  A    between atoms: _452  and  _455
REMARK  191  A    between atoms: _455  and  _456
REMARK  192  A    between atoms: _460  and  _461
REMARK  193  A    between atoms: _466  and  _468
REMARK  194  A    between atoms: _468  and  _469
REMARK  195  A    between atoms: _468  and  _471
REMARK  196  A    between atoms: _474  and  _476
REMARK  197  A    between atoms: _476  and  _477
REMARK  198  A    between atoms: _476  and  _479
REMARK  199  A    between atoms: _479  and  _480
REMARK  200  A    between atoms: _485  and  _487
REMARK  201  A    between atoms: _487  and  _488
REMARK  202  A    between atoms: _487  and  _490
REMARK  203  A    between atoms: _490  and  _491
REMARK  204  A    between atoms: _494  and  _496
REMARK  205  A    between atoms: _496  and  _497
REMARK  206  A    between atoms: _496  and  _499
REMARK  207  A    between atoms: _499  and  _500
REMARK  208  A    between atoms: _503  and  _505
REMARK  209  A    between atoms: _505  and  _506
REMARK  210  A    between atoms: _508  and  _510
REMARK  211  A    between atoms: _510  and  _511
REMARK  212  A    between atoms: _510  and  _513
REMARK  213  A    between atoms: _513  and  _514
REMARK  214  A    between atoms: _514  and  _515
REMARK  215  A    between atoms: _515  and  _516
REMARK                            x       y       z     vdW  Elec       q    Type
REMARK                         _______ _______ _______ _____ _____    ______ ____
ROOT
ATOM      1  O   HOH     1      -0.661  10.697  13.706  0.00  0.00    +0.000 OA
ENDROOT
TORSDOF 0
REMARK  Name = ../refined-set-2016/1b6k/1b6k_pocket.pdb
REMARK  215 active torsions:
REMARK  status: ('A' for Active; 'I' for Inactive)
REMARK    1  A    between atoms: _1  and  _3
REMARK    2  A    between atoms: _3  and  _4
REMARK    3  A    between atoms: _3  and  _6
REMARK    4  A    between atoms: _6  and  _7
REMARK    5  A    between atoms: _7  and  _8
REMARK    6  A    between atoms: _8  and  _9
REMARK    7  A    between atoms: _18  and  _20
REMARK    8  A    between atoms: _20  and  _21
REMARK    9  A    between atoms: _20  and  _23
REMARK   10  A    between atoms: _23  and  _24
REMARK   11  A    between atoms: _27  and  _29
REMARK   12  A    between atoms: _29  and  _30
REMARK   13  A    between atoms: _29  and  _32
REMARK   14  A    between atoms: _32  and  _33
REMARK   15  A    between atoms: _36  and  _38
REMARK   16  A    between atoms: _38  and  _39
REMARK   17  A    between atoms: _38  and  _41
REMARK   18  A    between atoms: _41  and  _42
REMARK   19  A    between atoms: _45  and  _47
REMARK   20  A    between atoms: _47  and  _48
REMARK   21  A    between atoms: _47  and  _50
REMARK   22  A    between atoms: _50  and  _51
REMARK   23  A    between atoms: _54  and  _56
REMARK   24  A    between atoms: _56  and  _57
REMARK   25  A    between atoms: _59  and  _61
REMARK   26  A    between atoms: _61  and  _62
REMARK   27  A    between atoms: _65  and  _67
REMARK   28  A    between atoms: _67  and  _68
REMARK   29  A    between atoms: _67  and  _70
REMARK   30  A    between atoms: _70  and  _71
REMARK   31  A    between atoms: _74  and  _76
REMARK   32  A    between atoms: _76  and  _77
REMARK   33  A    between atoms: _76  and  _79
REMARK   34  A    between atoms: _79  and  _80
REMARK   35  A    between atoms: _83  and  _85
REMARK   36  A    between atoms: _85  and  _86
REMARK   37  A    between atoms: _85  and  _88
REMARK   38  A    between atoms: _88  and  _89
REMARK   39  A    between atoms: _92  and  _94
REMARK   40  A    between atoms: _94  and  _95
REMARK   41  A    between atoms: _94  and  _97
REMARK   42  A    between atoms: _100  and  _102
REMARK   43  A    between atoms: _102  and  _103
REMARK   44  A    between atoms: _102  and  _105
REMARK   45  A    between atoms: _105  and  _106
REMARK   46  A    between atoms: _106  and  _107
REMARK   47  A    between atoms: _109  and  _111
REMARK   48  A    between atoms: _111  and  _112
REMARK   49  A    between atoms: _111  and  _114
REMARK   50  A    between atoms: _114  and  _115
REMARK   51  A    between atoms: _118  and  _120
REMARK   52  A    between atoms: _120  and  _121
REMARK   53  A    between atoms: _123  and  _125
REMARK   54  A    between atoms: _125  and  _126
REMARK   55  A    between atoms: _128  and  _130
REMARK   56  A    between atoms: _130  and  _131
REMARK   57  A    between atoms: _130  and  _133
REMARK   58  A    between atoms: _133  and  _134
REMARK   59  A    between atoms: _137  and  _139
REMARK   60  A    between atoms: _139  and  _140
REMARK   61  A    between atoms: _142  and  _144
REMARK   62  A    between atoms: _144  and  _145
REMARK   63  A    between atoms: _147  and  _149
REMARK   64  A    between atoms: _149  and  _150
REMARK   65  A    between atoms: _149  and  _152
REMARK   66  A    between atoms: _152  and  _153
REMARK   67  A    between atoms: _159  and  _161
REMARK   68  A    between atoms: _161  and  _162
REMARK   69  A    between atoms: _161  and  _164
REMARK   70  A    between atoms: _164  and  _165
REMARK   71  A    between atoms: _168  and  _170
REMARK   72  A    between atoms: _170  and  _171
REMARK   73  A    between atoms: _170  and  _173
REMARK   74  A    between atoms: _173  and  _174
REMARK   75  A    between atoms: _177  and  _179
REMARK   76  A    between atoms: _179  and  _180
REMARK   77  A    between atoms: _179  and  _182
REMARK   78  A    between atoms: _182  and  _183
REMARK   79  A    between atoms: _187  and  _188
REMARK   80  A    between atoms: _193  and  _195
REMARK   81  A    between atoms: _195  and  _196
REMARK   82  A    between atoms: _195  and  _198
REMARK   83  A    between atoms: _201  and  _203
REMARK   84  A    between atoms: _203  and  _204
REMARK   85  A    between atoms: _203  and  _206
REMARK   86  A    between atoms: _206  and  _207
REMARK   87  A    between atoms: _212  and  _214
REMARK   88  A    between atoms: _214  and  _215
REMARK   89  A    between atoms: _214  and  _217
REMARK   90  A    between atoms: _217  and  _218
REMARK   91  A    between atoms: _221  and  _223
REMARK   92  A    between atoms: _223  and  _224
REMARK   93  A    between atoms: _223  and  _226
REMARK   94  A    between atoms: _226  and  _227
REMARK   95  A    between atoms: _230  and  _232
REMARK   96  A    between atoms: _232  and  _233
REMARK   97  A    between atoms: _235  and  _237
REMARK   98  A    between atoms: _237  and  _238
REMARK   99  A    between atoms: _237  and  _240
REMARK  100  A    between atoms: _240  and  _241
REMARK  101  A    between atoms: _241  and  _242
REMARK  102  A    between atoms: _242  and  _243
REMARK  103  A    between atoms: _252  and  _254
REMARK  104  A    between atoms: _254  and  _255
REMARK  105  A    between atoms: _254  and  _257
REMARK  106  A    between atoms: _257  and  _258
REMARK  107  A    between atoms: _258  and  _259
REMARK  108  A    between atoms: _259  and  _260
REMARK  109  A    between atoms: _269  and  _271
REMARK  110  A    between atoms: _271  and  _272
REMARK  111  A    between atoms: _271  and  _274
REMARK  112  A    between atoms: _274  and  _275
REMARK  113  A    between atoms: _278  and  _280
REMARK  114  A    between atoms: _280  and  _281
REMARK  115  A    between atoms: _280  and  _283
REMARK  116  A    between atoms: _283  and  _284
REMARK  117  A    between atoms: _287  and  _289
REMARK  118  A    between atoms: _289  and  _290
REMARK  119  A    between atoms: _289  and  _292
REMARK  120  A    between atoms: _292  and  _293
REMARK  121  A    between atoms: _296  and  _298
REMARK  122  A    between atoms: _298  and  _299
REMARK  123  A    between atoms: _298  and  _301
REMARK  124  A    between atoms: _301  and  _302
REMARK  125  A    between atoms: _305  and  _307
REMARK  126  A    between atoms: _307  and  _308
REMARK  127  A    between atoms: _307  and  _310
REMARK  128  A    between atoms: _310  and  _311
REMARK  129  A    between atoms: _314  and  _316
REMARK  130  A    between atoms: _316  and  _317
REMARK  131  A    between atoms: _319  and  _321
REMARK  132  A    between atoms: _321  and  _322
REMARK  133  A    between atoms: _325  and  _327
REMARK  134  A    between atoms: _327  and  _328
REMARK  135  A    between atoms: _327  and  _330
REMARK  136  A    between atoms: _330  and  _331
REMARK  137  A    between atoms: _334  and  _336
REMARK  138  A    between atoms: _336  and  _337
REMARK  139  A    between atoms: _336  and  _339
REMARK  140  A    between atoms: _339  and  _340
REMARK  141  A    between atoms: _343  and  _345
REMARK  142  A    between atoms: _345  and  _346
REMARK  143  A    between atoms: _345  and  _348
REMARK  144  A    between atoms: _348  and  _349
REMARK  145  A    between atoms: _352  and  _354
REMARK  146  A    between atoms: _354  and  _355
REMARK  147  A    between atoms: _354  and  _357
REMARK  148  A    between atoms: _360  and  _362
REMARK  149  A    between atoms: _362  and  _363
REMARK  150  A    between atoms: _362  and  _365
REMARK  151  A    between atoms: _365  and  _366
REMARK  152  A    between atoms: _366  and  _367
REMARK  153  A    between atoms: _367  and  _368
REMARK  154  A    between atoms: _368  and  _369
REMARK  155  A    between atoms: _373  and  _375
REMARK  156  A    between atoms: _375  and  _376
REMARK  157  A    between atoms: _375  and  _378
REMARK  158  A    between atoms: _378  and  _379
REMARK  159  A    between atoms: _379  and  _380
REMARK  160  A    between atoms: _382  and  _384
REMARK  161  A    between atoms: _384  and  _385
REMARK  162  A    between atoms: _384  and  _387
REMARK  163  A    between atoms: _387  and  _388
REMARK  164  A    between atoms: _391  and  _393
REMARK  165  A    between atoms: _393  and  _394
REMARK  166  A    between atoms: _396  and  _398
REMARK  167  A    between atoms: _398  and  _399
REMARK  168  A    between atoms: _401  and  _403
REMARK  169  A    between atoms: _403  and  _404
REMARK  170  A    between atoms: _403  and  _406
REMARK  171  A    between atoms: _406  and  _407
REMARK  172  A    between atoms: _410  and  _412
REMARK  173  A    between atoms: _412  and  _413
REMARK  174  A    between atoms: _415  and  _417
REMARK  175  A    between atoms: _417  and  _418
REMARK  176  A    between atoms: _420  and  _422
REMARK  177  A    between atoms: _422  and  _423
REMARK  178  A    between atoms: _422  and  _425
REMARK  179  A    between atoms: _425  and  _426
REMARK  180  A    between atoms: _432  and  _434
REMARK  181  A    between atoms: _434  and  _435
REMARK  182  A    between atoms: _434  and  _437
REMARK  183  A    between atoms: _437  and  _438
REMARK  184  A    between atoms: _441  and  _443
REMARK  185  A    between atoms: _443  and  _444
REMARK  186  A    between atoms: _443  and  _446
REMARK  187  A    between atoms: _446  and  _447
REMARK  188  A    between atoms: _450  and  _452
REMARK  189  A    between atoms: _452  and  _453
REMARK  190  A    between atoms: _452  and  _455
REMARK  191  A    between atoms: _455  and  _456
REMARK  192  A    between atoms: _460  and  _461
REMARK  193  A    between atoms: _466  and  _468
REMARK  194  A    between atoms: _468  and  _469
REMARK  195  A    between atoms: _468  and  _471
REMARK  196  A    between atoms: _474  and  _476
REMARK  197  A    between atoms: _476  and  _477
REMARK  198  A    between atoms: _476  and  _479
REMARK  199  A    between atoms: _479  and  _480
REMARK  200  A    between atoms: _485  and  _487
REMARK  201  A    between atoms: _487  and  _488
REMARK  202  A    between atoms: _487  and  _490
REMARK  203  A    between atoms: _490  and  _491
REMARK  204  A    between atoms: _494  and  _496
REMARK  205  A    between atoms: _496  and  _497
REMARK  206  A    between atoms: _496  and  _499
REMARK  207  A    between atoms: _499  and  _500
REMARK  208  A    between atoms: _503  and  _505
REMARK  209  A    between atoms: _505  and  _506
REMARK  210  A    between atoms: _508  and  _510
REMARK  211  A    between atoms: _510  and  _511
REMARK  212  A    between atoms: _510  and  _513
REMARK  213  A    between atoms: _513  and  _514
REMARK  214  A    between atoms: _514  and  _515
REMARK  215  A    between atoms: _515  and  _516
REMARK                            x       y       z     vdW  Elec       q    Type
REMARK                         _______ _______ _______ _____ _____    ______ ____
ROOT
ATOM      1  O   HOH     1       3.413  11.022   9.423  0.00  0.00    +0.000 OA
ENDROOT
TORSDOF 0
REMARK  Name = ../refined-set-2016/1b6k/1b6k_pocket.pdb
REMARK  215 active torsions:
REMARK  status: ('A' for Active; 'I' for Inactive)
REMARK    1  A    between atoms: _1  and  _3
REMARK    2  A    between atoms: _3  and  _4
REMARK    3  A    between atoms: _3  and  _6
REMARK    4  A    between atoms: _6  and  _7
REMARK    5  A    between atoms: _7  and  _8
REMARK    6  A    between atoms: _8  and  _9
REMARK    7  A    between atoms: _18  and  _20
REMARK    8  A    between atoms: _20  and  _21
REMARK    9  A    between atoms: _20  and  _23
REMARK   10  A    between atoms: _23  and  _24
REMARK   11  A    between atoms: _27  and  _29
REMARK   12  A    between atoms: _29  and  _30
REMARK   13  A    between atoms: _29  and  _32
REMARK   14  A    between atoms: _32  and  _33
REMARK   15  A    between atoms: _36  and  _38
REMARK   16  A    between atoms: _38  and  _39
REMARK   17  A    between atoms: _38  and  _41
REMARK   18  A    between atoms: _41  and  _42
REMARK   19  A    between atoms: _45  and  _47
REMARK   20  A    between atoms: _47  and  _48
REMARK   21  A    between atoms: _47  and  _50
REMARK   22  A    between atoms: _50  and  _51
REMARK   23  A    between atoms: _54  and  _56
REMARK   24  A    between atoms: _56  and  _57
REMARK   25  A    between atoms: _59  and  _61
REMARK   26  A    between atoms: _61  and  _62
REMARK   27  A    between atoms: _65  and  _67
REMARK   28  A    between atoms: _67  and  _68
REMARK   29  A    between atoms: _67  and  _70
REMARK   30  A    between atoms: _70  and  _71
REMARK   31  A    between atoms: _74  and  _76
REMARK   32  A    between atoms: _76  and  _77
REMARK   33  A    between atoms: _76  and  _79
REMARK   34  A    between atoms: _79  and  _80
REMARK   35  A    between atoms: _83  and  _85
REMARK   36  A    between atoms: _85  and  _86
REMARK   37  A    between atoms: _85  and  _88
REMARK   38  A    between atoms: _88  and  _89
REMARK   39  A    between atoms: _92  and  _94
REMARK   40  A    between atoms: _94  and  _95
REMARK   41  A    between atoms: _94  and  _97
REMARK   42  A    between atoms: _100  and  _102
REMARK   43  A    between atoms: _102  and  _103
REMARK   44  A    between atoms: _102  and  _105
REMARK   45  A    between atoms: _105  and  _106
REMARK   46  A    between atoms: _106  and  _107
REMARK   47  A    between atoms: _109  and  _111
REMARK   48  A    between atoms: _111  and  _112
REMARK   49  A    between atoms: _111  and  _114
REMARK   50  A    between atoms: _114  and  _115
REMARK   51  A    between atoms: _118  and  _120
REMARK   52  A    between atoms: _120  and  _121
REMARK   53  A    between atoms: _123  and  _125
REMARK   54  A    between atoms: _125  and  _126
REMARK   55  A    between atoms: _128  and  _130
REMARK   56  A    between atoms: _130  and  _131
REMARK   57  A    between atoms: _130  and  _133
REMARK   58  A    between atoms: _133  and  _134
REMARK   59  A    between atoms: _137  and  _139
REMARK   60  A    between atoms: _139  and  _140
REMARK   61  A    between atoms: _142  and  _144
REMARK   62  A    between atoms: _144  and  _145
REMARK   63  A    between atoms: _147  and  _149
REMARK   64  A    between atoms: _149  and  _150
REMARK   65  A    between atoms: _149  and  _152
REMARK   66  A    between atoms: _152  and  _153
REMARK   67  A    between atoms: _159  and  _161
REMARK   68  A    between atoms: _161  and  _162
REMARK   69  A    between atoms: _161  and  _164
REMARK   70  A    between atoms: _164  and  _165
REMARK   71  A    between atoms: _168  and  _170
REMARK   72  A    between atoms: _170  and  _171
REMARK   73  A    between atoms: _170  and  _173
REMARK   74  A    between atoms: _173  and  _174
REMARK   75  A    between atoms: _177  and  _179
REMARK   76  A    between atoms: _179  and  _180
REMARK   77  A    between atoms: _179  and  _182
REMARK   78  A    between atoms: _182  and  _183
REMARK   79  A    between atoms: _187  and  _188
REMARK   80  A    between atoms: _193  and  _195
REMARK   81  A    between atoms: _195  and  _196
REMARK   82  A    between atoms: _195  and  _198
REMARK   83  A    between atoms: _201  and  _203
REMARK   84  A    between atoms: _203  and  _204
REMARK   85  A    between atoms: _203  and  _206
REMARK   86  A    between atoms: _206  and  _207
REMARK   87  A    between atoms: _212  and  _214
REMARK   88  A    between atoms: _214  and  _215
REMARK   89  A    between atoms: _214  and  _217
REMARK   90  A    between atoms: _217  and  _218
REMARK   91  A    between atoms: _221  and  _223
REMARK   92  A    between atoms: _223  and  _224
REMARK   93  A    between atoms: _223  and  _226
REMARK   94  A    between atoms: _226  and  _227
REMARK   95  A    between atoms: _230  and  _232
REMARK   96  A    between atoms: _232  and  _233
REMARK   97  A    between atoms: _235  and  _237
REMARK   98  A    between atoms: _237  and  _238
REMARK   99  A    between atoms: _237  and  _240
REMARK  100  A    between atoms: _240  and  _241
REMARK  101  A    between atoms: _241  and  _242
REMARK  102  A    between atoms: _242  and  _243
REMARK  103  A    between atoms: _252  and  _254
REMARK  104  A    between atoms: _254  and  _255
REMARK  105  A    between atoms: _254  and  _257
REMARK  106  A    between atoms: _257  and  _258
REMARK  107  A    between atoms: _258  and  _259
REMARK  108  A    between atoms: _259  and  _260
REMARK  109  A    between atoms: _269  and  _271
REMARK  110  A    between atoms: _271  and  _272
REMARK  111  A    between atoms: _271  and  _274
REMARK  112  A    between atoms: _274  and  _275
REMARK  113  A    between atoms: _278  and  _280
REMARK  114  A    between atoms: _280  and  _281
REMARK  115  A    between atoms: _280  and  _283
REMARK  116  A    between atoms: _283  and  _284
REMARK  117  A    between atoms: _287  and  _289
REMARK  118  A    between atoms: _289  and  _290
REMARK  119  A    between atoms: _289  and  _292
REMARK  120  A    between atoms: _292  and  _293
REMARK  121  A    between atoms: _296  and  _298
REMARK  122  A    between atoms: _298  and  _299
REMARK  123  A    between atoms: _298  and  _301
REMARK  124  A    between atoms: _301  and  _302
REMARK  125  A    between atoms: _305  and  _307
REMARK  126  A    between atoms: _307  and  _308
REMARK  127  A    between atoms: _307  and  _310
REMARK  128  A    between atoms: _310  and  _311
REMARK  129  A    between atoms: _314  and  _316
REMARK  130  A    between atoms: _316  and  _317
REMARK  131  A    between atoms: _319  and  _321
REMARK  132  A    between atoms: _321  and  _322
REMARK  133  A    between atoms: _325  and  _327
REMARK  134  A    between atoms: _327  and  _328
REMARK  135  A    between atoms: _327  and  _330
REMARK  136  A    between atoms: _330  and  _331
REMARK  137  A    between atoms: _334  and  _336
REMARK  138  A    between atoms: _336  and  _337
REMARK  139  A    between atoms: _336  and  _339
REMARK  140  A    between atoms: _339  and  _340
REMARK  141  A    between atoms: _343  and  _345
REMARK  142  A    between atoms: _345  and  _346
REMARK  143  A    between atoms: _345  and  _348
REMARK  144  A    between atoms: _348  and  _349
REMARK  145  A    between atoms: _352  and  _354
REMARK  146  A    between atoms: _354  and  _355
REMARK  147  A    between atoms: _354  and  _357
REMARK  148  A    between atoms: _360  and  _362
REMARK  149  A    between atoms: _362  and  _363
REMARK  150  A    between atoms: _362  and  _365
REMARK  151  A    between atoms: _365  and  _366
REMARK  152  A    between atoms: _366  and  _367
REMARK  153  A    between atoms: _367  and  _368
REMARK  154  A    between atoms: _368  and  _369
REMARK  155  A    between atoms: _373  and  _375
REMARK  156  A    between atoms: _375  and  _376
REMARK  157  A    between atoms: _375  and  _378
REMARK  158  A    between atoms: _378  and  _379
REMARK  159  A    between atoms: _379  and  _380
REMARK  160  A    between atoms: _382  and  _384
REMARK  161  A    between atoms: _384  and  _385
REMARK  162  A    between atoms: _384  and  _387
REMARK  163  A    between atoms: _387  and  _388
REMARK  164  A    between atoms: _391  and  _393
REMARK  165  A    between atoms: _393  and  _394
REMARK  166  A    between atoms: _396  and  _398
REMARK  167  A    between atoms: _398  and  _399
REMARK  168  A    between atoms: _401  and  _403
REMARK  169  A    between atoms: _403  and  _404
REMARK  170  A    between atoms: _403  and  _406
REMARK  171  A    between atoms: _406  and  _407
REMARK  172  A    between atoms: _410  and  _412
REMARK  173  A    between atoms: _412  and  _413
REMARK  174  A    between atoms: _415  and  _417
REMARK  175  A    between atoms: _417  and  _418
REMARK  176  A    between atoms: _420  and  _422
REMARK  177  A    between atoms: _422  and  _423
REMARK  178  A    between atoms: _422  and  _425
REMARK  179  A    between atoms: _425  and  _426
REMARK  180  A    between atoms: _432  and  _434
REMARK  181  A    between atoms: _434  and  _435
REMARK  182  A    between atoms: _434  and  _437
REMARK  183  A    between atoms: _437  and  _438
REMARK  184  A    between atoms: _441  and  _443
REMARK  185  A    between atoms: _443  and  _444
REMARK  186  A    between atoms: _443  and  _446
REMARK  187  A    between atoms: _446  and  _447
REMARK  188  A    between atoms: _450  and  _452
REMARK  189  A    between atoms: _452  and  _453
REMARK  190  A    between atoms: _452  and  _455
REMARK  191  A    between atoms: _455  and  _456
REMARK  192  A    between atoms: _460  and  _461
REMARK  193  A    between atoms: _466  and  _468
REMARK  194  A    between atoms: _468  and  _469
REMARK  195  A    between atoms: _468  and  _471
REMARK  196  A    between atoms: _474  and  _476
REMARK  197  A    between atoms: _476  and  _477
REMARK  198  A    between atoms: _476  and  _479
REMARK  199  A    between atoms: _479  and  _480
REMARK  200  A    between atoms: _485  and  _487
REMARK  201  A    between atoms: _487  and  _488
REMARK  202  A    between atoms: _487  and  _490
REMARK  203  A    between atoms: _490  and  _491
REMARK  204  A    between atoms: _494  and  _496
REMARK  205  A    between atoms: _496  and  _497
REMARK  206  A    between atoms: _496  and  _499
REMARK  207  A    between atoms: _499  and  _500
REMARK  208  A    between atoms: _503  and  _505
REMARK  209  A    between atoms: _505  and  _506
REMARK  210  A    between atoms: _508  and  _510
REMARK  211  A    between atoms: _510  and  _511
REMARK  212  A    between atoms: _510  and  _513
REMARK  213  A    between atoms: _513  and  _514
REMARK  214  A    between atoms: _514  and  _515
REMARK  215  A    between atoms: _515  and  _516
REMARK                            x       y       z     vdW  Elec       q    Type
REMARK                         _______ _______ _______ _____ _____    ______ ____
ROOT
ATOM      1  O   HOH     1       2.792   3.497   4.781  0.00  0.00    +0.000 OA
ENDROOT
TORSDOF 0
REMARK  Name = ../refined-set-2016/1b6k/1b6k_pocket.pdb
REMARK  215 active torsions:
REMARK  status: ('A' for Active; 'I' for Inactive)
REMARK    1  A    between atoms: _1  and  _3
REMARK    2  A    between atoms: _3  and  _4
REMARK    3  A    between atoms: _3  and  _6
REMARK    4  A    between atoms: _6  and  _7
REMARK    5  A    between atoms: _7  and  _8
REMARK    6  A    between atoms: _8  and  _9
REMARK    7  A    between atoms: _18  and  _20
REMARK    8  A    between atoms: _20  and  _21
REMARK    9  A    between atoms: _20  and  _23
REMARK   10  A    between atoms: _23  and  _24
REMARK   11  A    between atoms: _27  and  _29
REMARK   12  A    between atoms: _29  and  _30
REMARK   13  A    between atoms: _29  and  _32
REMARK   14  A    between atoms: _32  and  _33
REMARK   15  A    between atoms: _36  and  _38
REMARK   16  A    between atoms: _38  and  _39
REMARK   17  A    between atoms: _38  and  _41
REMARK   18  A    between atoms: _41  and  _42
REMARK   19  A    between atoms: _45  and  _47
REMARK   20  A    between atoms: _47  and  _48
REMARK   21  A    between atoms: _47  and  _50
REMARK   22  A    between atoms: _50  and  _51
REMARK   23  A    between atoms: _54  and  _56
REMARK   24  A    between atoms: _56  and  _57
REMARK   25  A    between atoms: _59  and  _61
REMARK   26  A    between atoms: _61  and  _62
REMARK   27  A    between atoms: _65  and  _67
REMARK   28  A    between atoms: _67  and  _68
REMARK   29  A    between atoms: _67  and  _70
REMARK   30  A    between atoms: _70  and  _71
REMARK   31  A    between atoms: _74  and  _76
REMARK   32  A    between atoms: _76  and  _77
REMARK   33  A    between atoms: _76  and  _79
REMARK   34  A    between atoms: _79  and  _80
REMARK   35  A    between atoms: _83  and  _85
REMARK   36  A    between atoms: _85  and  _86
REMARK   37  A    between atoms: _85  and  _88
REMARK   38  A    between atoms: _88  and  _89
REMARK   39  A    between atoms: _92  and  _94
REMARK   40  A    between atoms: _94  and  _95
REMARK   41  A    between atoms: _94  and  _97
REMARK   42  A    between atoms: _100  and  _102
REMARK   43  A    between atoms: _102  and  _103
REMARK   44  A    between atoms: _102  and  _105
REMARK   45  A    between atoms: _105  and  _106
REMARK   46  A    between atoms: _106  and  _107
REMARK   47  A    between atoms: _109  and  _111
REMARK   48  A    between atoms: _111  and  _112
REMARK   49  A    between atoms: _111  and  _114
REMARK   50  A    between atoms: _114  and  _115
REMARK   51  A    between atoms: _118  and  _120
REMARK   52  A    between atoms: _120  and  _121
REMARK   53  A    between atoms: _123  and  _125
REMARK   54  A    between atoms: _125  and  _126
REMARK   55  A    between atoms: _128  and  _130
REMARK   56  A    between atoms: _130  and  _131
REMARK   57  A    between atoms: _130  and  _133
REMARK   58  A    between atoms: _133  and  _134
REMARK   59  A    between atoms: _137  and  _139
REMARK   60  A    between atoms: _139  and  _140
REMARK   61  A    between atoms: _142  and  _144
REMARK   62  A    between atoms: _144  and  _145
REMARK   63  A    between atoms: _147  and  _149
REMARK   64  A    between atoms: _149  and  _150
REMARK   65  A    between atoms: _149  and  _152
REMARK   66  A    between atoms: _152  and  _153
REMARK   67  A    between atoms: _159  and  _161
REMARK   68  A    between atoms: _161  and  _162
REMARK   69  A    between atoms: _161  and  _164
REMARK   70  A    between atoms: _164  and  _165
REMARK   71  A    between atoms: _168  and  _170
REMARK   72  A    between atoms: _170  and  _171
REMARK   73  A    between atoms: _170  and  _173
REMARK   74  A    between atoms: _173  and  _174
REMARK   75  A    between atoms: _177  and  _179
REMARK   76  A    between atoms: _179  and  _180
REMARK   77  A    between atoms: _179  and  _182
REMARK   78  A    between atoms: _182  and  _183
REMARK   79  A    between atoms: _187  and  _188
REMARK   80  A    between atoms: _193  and  _195
REMARK   81  A    between atoms: _195  and  _196
REMARK   82  A    between atoms: _195  and  _198
REMARK   83  A    between atoms: _201  and  _203
REMARK   84  A    between atoms: _203  and  _204
REMARK   85  A    between atoms: _203  and  _206
REMARK   86  A    between atoms: _206  and  _207
REMARK   87  A    between atoms: _212  and  _214
REMARK   88  A    between atoms: _214  and  _215
REMARK   89  A    between atoms: _214  and  _217
REMARK   90  A    between atoms: _217  and  _218
REMARK   91  A    between atoms: _221  and  _223
REMARK   92  A    between atoms: _223  and  _224
REMARK   93  A    between atoms: _223  and  _226
REMARK   94  A    between atoms: _226  and  _227
REMARK   95  A    between atoms: _230  and  _232
REMARK   96  A    between atoms: _232  and  _233
REMARK   97  A    between atoms: _235  and  _237
REMARK   98  A    between atoms: _237  and  _238
REMARK   99  A    between atoms: _237  and  _240
REMARK  100  A    between atoms: _240  and  _241
REMARK  101  A    between atoms: _241  and  _242
REMARK  102  A    between atoms: _242  and  _243
REMARK  103  A    between atoms: _252  and  _254
REMARK  104  A    between atoms: _254  and  _255
REMARK  105  A    between atoms: _254  and  _257
REMARK  106  A    between atoms: _257  and  _258
REMARK  107  A    between atoms: _258  and  _259
REMARK  108  A    between atoms: _259  and  _260
REMARK  109  A    between atoms: _269  and  _271
REMARK  110  A    between atoms: _271  and  _272
REMARK  111  A    between atoms: _271  and  _274
REMARK  112  A    between atoms: _274  and  _275
REMARK  113  A    between atoms: _278  and  _280
REMARK  114  A    between atoms: _280  and  _281
REMARK  115  A    between atoms: _280  and  _283
REMARK  116  A    between atoms: _283  and  _284
REMARK  117  A    between atoms: _287  and  _289
REMARK  118  A    between atoms: _289  and  _290
REMARK  119  A    between atoms: _289  and  _292
REMARK  120  A    between atoms: _292  and  _293
REMARK  121  A    between atoms: _296  and  _298
REMARK  122  A    between atoms: _298  and  _299
REMARK  123  A    between atoms: _298  and  _301
REMARK  124  A    between atoms: _301  and  _302
REMARK  125  A    between atoms: _305  and  _307
REMARK  126  A    between atoms: _307  and  _308
REMARK  127  A    between atoms: _307  and  _310
REMARK  128  A    between atoms: _310  and  _311
REMARK  129  A    between atoms: _314  and  _316
REMARK  130  A    between atoms: _316  and  _317
REMARK  131  A    between atoms: _319  and  _321
REMARK  132  A    between atoms: _321  and  _322
REMARK  133  A    between atoms: _325  and  _327
REMARK  134  A    between atoms: _327  and  _328
REMARK  135  A    between atoms: _327  and  _330
REMARK  136  A    between atoms: _330  and  _331
REMARK  137  A    between atoms: _334  and  _336
REMARK  138  A    between atoms: _336  and  _337
REMARK  139  A    between atoms: _336  and  _339
REMARK  140  A    between atoms: _339  and  _340
REMARK  141  A    between atoms: _343  and  _345
REMARK  142  A    between atoms: _345  and  _346
REMARK  143  A    between atoms: _345  and  _348
REMARK  144  A    between atoms: _348  and  _349
REMARK  145  A    between atoms: _352  and  _354
REMARK  146  A    between atoms: _354  and  _355
REMARK  147  A    between atoms: _354  and  _357
REMARK  148  A    between atoms: _360  and  _362
REMARK  149  A    between atoms: _362  and  _363
REMARK  150  A    between atoms: _362  and  _365
REMARK  151  A    between atoms: _365  and  _366
REMARK  152  A    between atoms: _366  and  _367
REMARK  153  A    between atoms: _367  and  _368
REMARK  154  A    between atoms: _368  and  _369
REMARK  155  A    between atoms: _373  and  _375
REMARK  156  A    between atoms: _375  and  _376
REMARK  157  A    between atoms: _375  and  _378
REMARK  158  A    between atoms: _378  and  _379
REMARK  159  A    between atoms: _379  and  _380
REMARK  160  A    between atoms: _382  and  _384
REMARK  161  A    between atoms: _384  and  _385
REMARK  162  A    between atoms: _384  and  _387
REMARK  163  A    between atoms: _387  and  _388
REMARK  164  A    between atoms: _391  and  _393
REMARK  165  A    between atoms: _393  and  _394
REMARK  166  A    between atoms: _396  and  _398
REMARK  167  A    between atoms: _398  and  _399
REMARK  168  A    between atoms: _401  and  _403
REMARK  169  A    between atoms: _403  and  _404
REMARK  170  A    between atoms: _403  and  _406
REMARK  171  A    between atoms: _406  and  _407
REMARK  172  A    between atoms: _410  and  _412
REMARK  173  A    between atoms: _412  and  _413
REMARK  174  A    between atoms: _415  and  _417
REMARK  175  A    between atoms: _417  and  _418
REMARK  176  A    between atoms: _420  and  _422
REMARK  177  A    between atoms: _422  and  _423
REMARK  178  A    between atoms: _422  and  _425
REMARK  179  A    between atoms: _425  and  _426
REMARK  180  A    between atoms: _432  and  _434
REMARK  181  A    between atoms: _434  and  _435
REMARK  182  A    between atoms: _434  and  _437
REMARK  183  A    between atoms: _437  and  _438
REMARK  184  A    between atoms: _441  and  _443
REMARK  185  A    between atoms: _443  and  _444
REMARK  186  A    between atoms: _443  and  _446
REMARK  187  A    between atoms: _446  and  _447
REMARK  188  A    between atoms: _450  and  _452
REMARK  189  A    between atoms: _452  and  _453
REMARK  190  A    between atoms: _452  and  _455
REMARK  191  A    between atoms: _455  and  _456
REMARK  192  A    between atoms: _460  and  _461
REMARK  193  A    between atoms: _466  and  _468
REMARK  194  A    between atoms: _468  and  _469
REMARK  195  A    between atoms: _468  and  _471
REMARK  196  A    between atoms: _474  and  _476
REMARK  197  A    between atoms: _476  and  _477
REMARK  198  A    between atoms: _476  and  _479
REMARK  199  A    between atoms: _479  and  _480
REMARK  200  A    between atoms: _485  and  _487
REMARK  201  A    between atoms: _487  and  _488
REMARK  202  A    between atoms: _487  and  _490
REMARK  203  A    between atoms: _490  and  _491
REMARK  204  A    between atoms: _494  and  _496
REMARK  205  A    between atoms: _496  and  _497
REMARK  206  A    between atoms: _496  and  _499
REMARK  207  A    between atoms: _499  and  _500
REMARK  208  A    between atoms: _503  and  _505
REMARK  209  A    between atoms: _505  and  _506
REMARK  210  A    between atoms: _508  and  _510
REMARK  211  A    between atoms: _510  and  _511
REMARK  212  A    between atoms: _510  and  _513
REMARK  213  A    between atoms: _513  and  _514
REMARK  214  A    between atoms: _514  and  _515
REMARK  215  A    between atoms: _515  and  _516
REMARK                            x       y       z     vdW  Elec       q    Type
REMARK                         _______ _______ _______ _____ _____    ______ ____
ROOT
ATOM      1  O   HOH     1       6.119   2.848   5.551  0.00  0.00    +0.000 OA
ENDROOT
TORSDOF 0
REMARK  Name = ../refined-set-2016/1b6k/1b6k_pocket.pdb
REMARK  215 active torsions:
REMARK  status: ('A' for Active; 'I' for Inactive)
REMARK    1  A    between atoms: _1  and  _3
REMARK    2  A    between atoms: _3  and  _4
REMARK    3  A    between atoms: _3  and  _6
REMARK    4  A    between atoms: _6  and  _7
REMARK    5  A    between atoms: _7  and  _8
REMARK    6  A    between atoms: _8  and  _9
REMARK    7  A    between atoms: _18  and  _20
REMARK    8  A    between atoms: _20  and  _21
REMARK    9  A    between atoms: _20  and  _23
REMARK   10  A    between atoms: _23  and  _24
REMARK   11  A    between atoms: _27  and  _29
REMARK   12  A    between atoms: _29  and  _30
REMARK   13  A    between atoms: _29  and  _32
REMARK   14  A    between atoms: _32  and  _33
REMARK   15  A    between atoms: _36  and  _38
REMARK   16  A    between atoms: _38  and  _39
REMARK   17  A    between atoms: _38  and  _41
REMARK   18  A    between atoms: _41  and  _42
REMARK   19  A    between atoms: _45  and  _47
REMARK   20  A    between atoms: _47  and  _48
REMARK   21  A    between atoms: _47  and  _50
REMARK   22  A    between atoms: _50  and  _51
REMARK   23  A    between atoms: _54  and  _56
REMARK   24  A    between atoms: _56  and  _57
REMARK   25  A    between atoms: _59  and  _61
REMARK   26  A    between atoms: _61  and  _62
REMARK   27  A    between atoms: _65  and  _67
REMARK   28  A    between atoms: _67  and  _68
REMARK   29  A    between atoms: _67  and  _70
REMARK   30  A    between atoms: _70  and  _71
REMARK   31  A    between atoms: _74  and  _76
REMARK   32  A    between atoms: _76  and  _77
REMARK   33  A    between atoms: _76  and  _79
REMARK   34  A    between atoms: _79  and  _80
REMARK   35  A    between atoms: _83  and  _85
REMARK   36  A    between atoms: _85  and  _86
REMARK   37  A    between atoms: _85  and  _88
REMARK   38  A    between atoms: _88  and  _89
REMARK   39  A    between atoms: _92  and  _94
REMARK   40  A    between atoms: _94  and  _95
REMARK   41  A    between atoms: _94  and  _97
REMARK   42  A    between atoms: _100  and  _102
REMARK   43  A    between atoms: _102  and  _103
REMARK   44  A    between atoms: _102  and  _105
REMARK   45  A    between atoms: _105  and  _106
REMARK   46  A    between atoms: _106  and  _107
REMARK   47  A    between atoms: _109  and  _111
REMARK   48  A    between atoms: _111  and  _112
REMARK   49  A    between atoms: _111  and  _114
REMARK   50  A    between atoms: _114  and  _115
REMARK   51  A    between atoms: _118  and  _120
REMARK   52  A    between atoms: _120  and  _121
REMARK   53  A    between atoms: _123  and  _125
REMARK   54  A    between atoms: _125  and  _126
REMARK   55  A    between atoms: _128  and  _130
REMARK   56  A    between atoms: _130  and  _131
REMARK   57  A    between atoms: _130  and  _133
REMARK   58  A    between atoms: _133  and  _134
REMARK   59  A    between atoms: _137  and  _139
REMARK   60  A    between atoms: _139  and  _140
REMARK   61  A    between atoms: _142  and  _144
REMARK   62  A    between atoms: _144  and  _145
REMARK   63  A    between atoms: _147  and  _149
REMARK   64  A    between atoms: _149  and  _150
REMARK   65  A    between atoms: _149  and  _152
REMARK   66  A    between atoms: _152  and  _153
REMARK   67  A    between atoms: _159  and  _161
REMARK   68  A    between atoms: _161  and  _162
REMARK   69  A    between atoms: _161  and  _164
REMARK   70  A    between atoms: _164  and  _165
REMARK   71  A    between atoms: _168  and  _170
REMARK   72  A    between atoms: _170  and  _171
REMARK   73  A    between atoms: _170  and  _173
REMARK   74  A    between atoms: _173  and  _174
REMARK   75  A    between atoms: _177  and  _179
REMARK   76  A    between atoms: _179  and  _180
REMARK   77  A    between atoms: _179  and  _182
REMARK   78  A    between atoms: _182  and  _183
REMARK   79  A    between atoms: _187  and  _188
REMARK   80  A    between atoms: _193  and  _195
REMARK   81  A    between atoms: _195  and  _196
REMARK   82  A    between atoms: _195  and  _198
REMARK   83  A    between atoms: _201  and  _203
REMARK   84  A    between atoms: _203  and  _204
REMARK   85  A    between atoms: _203  and  _206
REMARK   86  A    between atoms: _206  and  _207
REMARK   87  A    between atoms: _212  and  _214
REMARK   88  A    between atoms: _214  and  _215
REMARK   89  A    between atoms: _214  and  _217
REMARK   90  A    between atoms: _217  and  _218
REMARK   91  A    between atoms: _221  and  _223
REMARK   92  A    between atoms: _223  and  _224
REMARK   93  A    between atoms: _223  and  _226
REMARK   94  A    between atoms: _226  and  _227
REMARK   95  A    between atoms: _230  and  _232
REMARK   96  A    between atoms: _232  and  _233
REMARK   97  A    between atoms: _235  and  _237
REMARK   98  A    between atoms: _237  and  _238
REMARK   99  A    between atoms: _237  and  _240
REMARK  100  A    between atoms: _240  and  _241
REMARK  101  A    between atoms: _241  and  _242
REMARK  102  A    between atoms: _242  and  _243
REMARK  103  A    between atoms: _252  and  _254
REMARK  104  A    between atoms: _254  and  _255
REMARK  105  A    between atoms: _254  and  _257
REMARK  106  A    between atoms: _257  and  _258
REMARK  107  A    between atoms: _258  and  _259
REMARK  108  A    between atoms: _259  and  _260
REMARK  109  A    between atoms: _269  and  _271
REMARK  110  A    between atoms: _271  and  _272
REMARK  111  A    between atoms: _271  and  _274
REMARK  112  A    between atoms: _274  and  _275
REMARK  113  A    between atoms: _278  and  _280
REMARK  114  A    between atoms: _280  and  _281
REMARK  115  A    between atoms: _280  and  _283
REMARK  116  A    between atoms: _283  and  _284
REMARK  117  A    between atoms: _287  and  _289
REMARK  118  A    between atoms: _289  and  _290
REMARK  119  A    between atoms: _289  and  _292
REMARK  120  A    between atoms: _292  and  _293
REMARK  121  A    between atoms: _296  and  _298
REMARK  122  A    between atoms: _298  and  _299
REMARK  123  A    between atoms: _298  and  _301
REMARK  124  A    between atoms: _301  and  _302
REMARK  125  A    between atoms: _305  and  _307
REMARK  126  A    between atoms: _307  and  _308
REMARK  127  A    between atoms: _307  and  _310
REMARK  128  A    between atoms: _310  and  _311
REMARK  129  A    between atoms: _314  and  _316
REMARK  130  A    between atoms: _316  and  _317
REMARK  131  A    between atoms: _319  and  _321
REMARK  132  A    between atoms: _321  and  _322
REMARK  133  A    between atoms: _325  and  _327
REMARK  134  A    between atoms: _327  and  _328
REMARK  135  A    between atoms: _327  and  _330
REMARK  136  A    between atoms: _330  and  _331
REMARK  137  A    between atoms: _334  and  _336
REMARK  138  A    between atoms: _336  and  _337
REMARK  139  A    between atoms: _336  and  _339
REMARK  140  A    between atoms: _339  and  _340
REMARK  141  A    between atoms: _343  and  _345
REMARK  142  A    between atoms: _345  and  _346
REMARK  143  A    between atoms: _345  and  _348
REMARK  144  A    between atoms: _348  and  _349
REMARK  145  A    between atoms: _352  and  _354
REMARK  146  A    between atoms: _354  and  _355
REMARK  147  A    between atoms: _354  and  _357
REMARK  148  A    between atoms: _360  and  _362
REMARK  149  A    between atoms: _362  and  _363
REMARK  150  A    between atoms: _362  and  _365
REMARK  151  A    between atoms: _365  and  _366
REMARK  152  A    between atoms: _366  and  _367
REMARK  153  A    between atoms: _367  and  _368
REMARK  154  A    between atoms: _368  and  _369
REMARK  155  A    between atoms: _373  and  _375
REMARK  156  A    between atoms: _375  and  _376
REMARK  157  A    between atoms: _375  and  _378
REMARK  158  A    between atoms: _378  and  _379
REMARK  159  A    between atoms: _379  and  _380
REMARK  160  A    between atoms: _382  and  _384
REMARK  161  A    between atoms: _384  and  _385
REMARK  162  A    between atoms: _384  and  _387
REMARK  163  A    between atoms: _387  and  _388
REMARK  164  A    between atoms: _391  and  _393
REMARK  165  A    between atoms: _393  and  _394
REMARK  166  A    between atoms: _396  and  _398
REMARK  167  A    between atoms: _398  and  _399
REMARK  168  A    between atoms: _401  and  _403
REMARK  169  A    between atoms: _403  and  _404
REMARK  170  A    between atoms: _403  and  _406
REMARK  171  A    between atoms: _406  and  _407
REMARK  172  A    between atoms: _410  and  _412
REMARK  173  A    between atoms: _412  and  _413
REMARK  174  A    between atoms: _415  and  _417
REMARK  175  A    between atoms: _417  and  _418
REMARK  176  A    between atoms: _420  and  _422
REMARK  177  A    between atoms: _422  and  _423
REMARK  178  A    between atoms: _422  and  _425
REMARK  179  A    between atoms: _425  and  _426
REMARK  180  A    between atoms: _432  and  _434
REMARK  181  A    between atoms: _434  and  _435
REMARK  182  A    between atoms: _434  and  _437
REMARK  183  A    between atoms: _437  and  _438
REMARK  184  A    between atoms: _441  and  _443
REMARK  185  A    between atoms: _443  and  _444
REMARK  186  A    between atoms: _443  and  _446
REMARK  187  A    between atoms: _446  and  _447
REMARK  188  A    between atoms: _450  and  _452
REMARK  189  A    between atoms: _452  and  _453
REMARK  190  A    between atoms: _452  and  _455
REMARK  191  A    between atoms: _455  and  _456
REMARK  192  A    between atoms: _460  and  _461
REMARK  193  A    between atoms: _466  and  _468
REMARK  194  A    between atoms: _468  and  _469
REMARK  195  A    between atoms: _468  and  _471
REMARK  196  A    between atoms: _474  and  _476
REMARK  197  A    between atoms: _476  and  _477
REMARK  198  A    between atoms: _476  and  _479
REMARK  199  A    between atoms: _479  and  _480
REMARK  200  A    between atoms: _485  and  _487
REMARK  201  A    between atoms: _487  and  _488
REMARK  202  A    between atoms: _487  and  _490
REMARK  203  A    between atoms: _490  and  _491
REMARK  204  A    between atoms: _494  and  _496
REMARK  205  A    between atoms: _496  and  _497
REMARK  206  A    between atoms: _496  and  _499
REMARK  207  A    between atoms: _499  and  _500
REMARK  208  A    between atoms: _503  and  _505
REMARK  209  A    between atoms: _505  and  _506
REMARK  210  A    between atoms: _508  and  _510
REMARK  211  A    between atoms: _510  and  _511
REMARK  212  A    between atoms: _510  and  _513
REMARK  213  A    between atoms: _513  and  _514
REMARK  214  A    between atoms: _514  and  _515
REMARK  215  A    between atoms: _515  and  _516
REMARK                            x       y       z     vdW  Elec       q    Type
REMARK                         _______ _______ _______ _____ _____    ______ ____
ROOT
ATOM      1  O   HOH     1       7.972  -1.792  13.223  0.00  0.00    +0.000 OA
ENDROOT
TORSDOF 0
REMARK  Name = ../refined-set-2016/1b6k/1b6k_pocket.pdb
REMARK  215 active torsions:
REMARK  status: ('A' for Active; 'I' for Inactive)
REMARK    1  A    between atoms: _1  and  _3
REMARK    2  A    between atoms: _3  and  _4
REMARK    3  A    between atoms: _3  and  _6
REMARK    4  A    between atoms: _6  and  _7
REMARK    5  A    between atoms: _7  and  _8
REMARK    6  A    between atoms: _8  and  _9
REMARK    7  A    between atoms: _18  and  _20
REMARK    8  A    between atoms: _20  and  _21
REMARK    9  A    between atoms: _20  and  _23
REMARK   10  A    between atoms: _23  and  _24
REMARK   11  A    between atoms: _27  and  _29
REMARK   12  A    between atoms: _29  and  _30
REMARK   13  A    between atoms: _29  and  _32
REMARK   14  A    between atoms: _32  and  _33
REMARK   15  A    between atoms: _36  and  _38
REMARK   16  A    between atoms: _38  and  _39
REMARK   17  A    between atoms: _38  and  _41
REMARK   18  A    between atoms: _41  and  _42
REMARK   19  A    between atoms: _45  and  _47
REMARK   20  A    between atoms: _47  and  _48
REMARK   21  A    between atoms: _47  and  _50
REMARK   22  A    between atoms: _50  and  _51
REMARK   23  A    between atoms: _54  and  _56
REMARK   24  A    between atoms: _56  and  _57
REMARK   25  A    between atoms: _59  and  _61
REMARK   26  A    between atoms: _61  and  _62
REMARK   27  A    between atoms: _65  and  _67
REMARK   28  A    between atoms: _67  and  _68
REMARK   29  A    between atoms: _67  and  _70
REMARK   30  A    between atoms: _70  and  _71
REMARK   31  A    between atoms: _74  and  _76
REMARK   32  A    between atoms: _76  and  _77
REMARK   33  A    between atoms: _76  and  _79
REMARK   34  A    between atoms: _79  and  _80
REMARK   35  A    between atoms: _83  and  _85
REMARK   36  A    between atoms: _85  and  _86
REMARK   37  A    between atoms: _85  and  _88
REMARK   38  A    between atoms: _88  and  _89
REMARK   39  A    between atoms: _92  and  _94
REMARK   40  A    between atoms: _94  and  _95
REMARK   41  A    between atoms: _94  and  _97
REMARK   42  A    between atoms: _100  and  _102
REMARK   43  A    between atoms: _102  and  _103
REMARK   44  A    between atoms: _102  and  _105
REMARK   45  A    between atoms: _105  and  _106
REMARK   46  A    between atoms: _106  and  _107
REMARK   47  A    between atoms: _109  and  _111
REMARK   48  A    between atoms: _111  and  _112
REMARK   49  A    between atoms: _111  and  _114
REMARK   50  A    between atoms: _114  and  _115
REMARK   51  A    between atoms: _118  and  _120
REMARK   52  A    between atoms: _120  and  _121
REMARK   53  A    between atoms: _123  and  _125
REMARK   54  A    between atoms: _125  and  _126
REMARK   55  A    between atoms: _128  and  _130
REMARK   56  A    between atoms: _130  and  _131
REMARK   57  A    between atoms: _130  and  _133
REMARK   58  A    between atoms: _133  and  _134
REMARK   59  A    between atoms: _137  and  _139
REMARK   60  A    between atoms: _139  and  _140
REMARK   61  A    between atoms: _142  and  _144
REMARK   62  A    between atoms: _144  and  _145
REMARK   63  A    between atoms: _147  and  _149
REMARK   64  A    between atoms: _149  and  _150
REMARK   65  A    between atoms: _149  and  _152
REMARK   66  A    between atoms: _152  and  _153
REMARK   67  A    between atoms: _159  and  _161
REMARK   68  A    between atoms: _161  and  _162
REMARK   69  A    between atoms: _161  and  _164
REMARK   70  A    between atoms: _164  and  _165
REMARK   71  A    between atoms: _168  and  _170
REMARK   72  A    between atoms: _170  and  _171
REMARK   73  A    between atoms: _170  and  _173
REMARK   74  A    between atoms: _173  and  _174
REMARK   75  A    between atoms: _177  and  _179
REMARK   76  A    between atoms: _179  and  _180
REMARK   77  A    between atoms: _179  and  _182
REMARK   78  A    between atoms: _182  and  _183
REMARK   79  A    between atoms: _187  and  _188
REMARK   80  A    between atoms: _193  and  _195
REMARK   81  A    between atoms: _195  and  _196
REMARK   82  A    between atoms: _195  and  _198
REMARK   83  A    between atoms: _201  and  _203
REMARK   84  A    between atoms: _203  and  _204
REMARK   85  A    between atoms: _203  and  _206
REMARK   86  A    between atoms: _206  and  _207
REMARK   87  A    between atoms: _212  and  _214
REMARK   88  A    between atoms: _214  and  _215
REMARK   89  A    between atoms: _214  and  _217
REMARK   90  A    between atoms: _217  and  _218
REMARK   91  A    between atoms: _221  and  _223
REMARK   92  A    between atoms: _223  and  _224
REMARK   93  A    between atoms: _223  and  _226
REMARK   94  A    between atoms: _226  and  _227
REMARK   95  A    between atoms: _230  and  _232
REMARK   96  A    between atoms: _232  and  _233
REMARK   97  A    between atoms: _235  and  _237
REMARK   98  A    between atoms: _237  and  _238
REMARK   99  A    between atoms: _237  and  _240
REMARK  100  A    between atoms: _240  and  _241
REMARK  101  A    between atoms: _241  and  _242
REMARK  102  A    between atoms: _242  and  _243
REMARK  103  A    between atoms: _252  and  _254
REMARK  104  A    between atoms: _254  and  _255
REMARK  105  A    between atoms: _254  and  _257
REMARK  106  A    between atoms: _257  and  _258
REMARK  107  A    between atoms: _258  and  _259
REMARK  108  A    between atoms: _259  and  _260
REMARK  109  A    between atoms: _269  and  _271
REMARK  110  A    between atoms: _271  and  _272
REMARK  111  A    between atoms: _271  and  _274
REMARK  112  A    between atoms: _274  and  _275
REMARK  113  A    between atoms: _278  and  _280
REMARK  114  A    between atoms: _280  and  _281
REMARK  115  A    between atoms: _280  and  _283
REMARK  116  A    between atoms: _283  and  _284
REMARK  117  A    between atoms: _287  and  _289
REMARK  118  A    between atoms: _289  and  _290
REMARK  119  A    between atoms: _289  and  _292
REMARK  120  A    between atoms: _292  and  _293
REMARK  121  A    between atoms: _296  and  _298
REMARK  122  A    between atoms: _298  and  _299
REMARK  123  A    between atoms: _298  and  _301
REMARK  124  A    between atoms: _301  and  _302
REMARK  125  A    between atoms: _305  and  _307
REMARK  126  A    between atoms: _307  and  _308
REMARK  127  A    between atoms: _307  and  _310
REMARK  128  A    between atoms: _310  and  _311
REMARK  129  A    between atoms: _314  and  _316
REMARK  130  A    between atoms: _316  and  _317
REMARK  131  A    between atoms: _319  and  _321
REMARK  132  A    between atoms: _321  and  _322
REMARK  133  A    between atoms: _325  and  _327
REMARK  134  A    between atoms: _327  and  _328
REMARK  135  A    between atoms: _327  and  _330
REMARK  136  A    between atoms: _330  and  _331
REMARK  137  A    between atoms: _334  and  _336
REMARK  138  A    between atoms: _336  and  _337
REMARK  139  A    between atoms: _336  and  _339
REMARK  140  A    between atoms: _339  and  _340
REMARK  141  A    between atoms: _343  and  _345
REMARK  142  A    between atoms: _345  and  _346
REMARK  143  A    between atoms: _345  and  _348
REMARK  144  A    between atoms: _348  and  _349
REMARK  145  A    between atoms: _352  and  _354
REMARK  146  A    between atoms: _354  and  _355
REMARK  147  A    between atoms: _354  and  _357
REMARK  148  A    between atoms: _360  and  _362
REMARK  149  A    between atoms: _362  and  _363
REMARK  150  A    between atoms: _362  and  _365
REMARK  151  A    between atoms: _365  and  _366
REMARK  152  A    between atoms: _366  and  _367
REMARK  153  A    between atoms: _367  and  _368
REMARK  154  A    between atoms: _368  and  _369
REMARK  155  A    between atoms: _373  and  _375
REMARK  156  A    between atoms: _375  and  _376
REMARK  157  A    between atoms: _375  and  _378
REMARK  158  A    between atoms: _378  and  _379
REMARK  159  A    between atoms: _379  and  _380
REMARK  160  A    between atoms: _382  and  _384
REMARK  161  A    between atoms: _384  and  _385
REMARK  162  A    between atoms: _384  and  _387
REMARK  163  A    between atoms: _387  and  _388
REMARK  164  A    between atoms: _391  and  _393
REMARK  165  A    between atoms: _393  and  _394
REMARK  166  A    between atoms: _396  and  _398
REMARK  167  A    between atoms: _398  and  _399
REMARK  168  A    between atoms: _401  and  _403
REMARK  169  A    between atoms: _403  and  _404
REMARK  170  A    between atoms: _403  and  _406
REMARK  171  A    between atoms: _406  and  _407
REMARK  172  A    between atoms: _410  and  _412
REMARK  173  A    between atoms: _412  and  _413
REMARK  174  A    between atoms: _415  and  _417
REMARK  175  A    between atoms: _417  and  _418
REMARK  176  A    between atoms: _420  and  _422
REMARK  177  A    between atoms: _422  and  _423
REMARK  178  A    between atoms: _422  and  _425
REMARK  179  A    between atoms: _425  and  _426
REMARK  180  A    between atoms: _432  and  _434
REMARK  181  A    between atoms: _434  and  _435
REMARK  182  A    between atoms: _434  and  _437
REMARK  183  A    between atoms: _437  and  _438
REMARK  184  A    between atoms: _441  and  _443
REMARK  185  A    between atoms: _443  and  _444
REMARK  186  A    between atoms: _443  and  _446
REMARK  187  A    between atoms: _446  and  _447
REMARK  188  A    between atoms: _450  and  _452
REMARK  189  A    between atoms: _452  and  _453
REMARK  190  A    between atoms: _452  and  _455
REMARK  191  A    between atoms: _455  and  _456
REMARK  192  A    between atoms: _460  and  _461
REMARK  193  A    between atoms: _466  and  _468
REMARK  194  A    between atoms: _468  and  _469
REMARK  195  A    between atoms: _468  and  _471
REMARK  196  A    between atoms: _474  and  _476
REMARK  197  A    between atoms: _476  and  _477
REMARK  198  A    between atoms: _476  and  _479
REMARK  199  A    between atoms: _479  and  _480
REMARK  200  A    between atoms: _485  and  _487
REMARK  201  A    between atoms: _487  and  _488
REMARK  202  A    between atoms: _487  and  _490
REMARK  203  A    between atoms: _490  and  _491
REMARK  204  A    between atoms: _494  and  _496
REMARK  205  A    between atoms: _496  and  _497
REMARK  206  A    between atoms: _496  and  _499
REMARK  207  A    between atoms: _499  and  _500
REMARK  208  A    between atoms: _503  and  _505
REMARK  209  A    between atoms: _505  and  _506
REMARK  210  A    between atoms: _508  and  _510
REMARK  211  A    between atoms: _510  and  _511
REMARK  212  A    between atoms: _510  and  _513
REMARK  213  A    between atoms: _513  and  _514
REMARK  214  A    between atoms: _514  and  _515
REMARK  215  A    between atoms: _515  and  _516
REMARK                            x       y       z     vdW  Elec       q    Type
REMARK                         _______ _______ _______ _____ _____    ______ ____
ROOT
ATOM      1  O   HOH     1       5.275  -3.161  23.504  0.00  0.00    +0.000 OA
ENDROOT
TORSDOF 0
REMARK  Name = ../refined-set-2016/1b6k/1b6k_pocket.pdb
REMARK  215 active torsions:
REMARK  status: ('A' for Active; 'I' for Inactive)
REMARK    1  A    between atoms: _1  and  _3
REMARK    2  A    between atoms: _3  and  _4
REMARK    3  A    between atoms: _3  and  _6
REMARK    4  A    between atoms: _6  and  _7
REMARK    5  A    between atoms: _7  and  _8
REMARK    6  A    between atoms: _8  and  _9
REMARK    7  A    between atoms: _18  and  _20
REMARK    8  A    between atoms: _20  and  _21
REMARK    9  A    between atoms: _20  and  _23
REMARK   10  A    between atoms: _23  and  _24
REMARK   11  A    between atoms: _27  and  _29
REMARK   12  A    between atoms: _29  and  _30
REMARK   13  A    between atoms: _29  and  _32
REMARK   14  A    between atoms: _32  and  _33
REMARK   15  A    between atoms: _36  and  _38
REMARK   16  A    between atoms: _38  and  _39
REMARK   17  A    between atoms: _38  and  _41
REMARK   18  A    between atoms: _41  and  _42
REMARK   19  A    between atoms: _45  and  _47
REMARK   20  A    between atoms: _47  and  _48
REMARK   21  A    between atoms: _47  and  _50
REMARK   22  A    between atoms: _50  and  _51
REMARK   23  A    between atoms: _54  and  _56
REMARK   24  A    between atoms: _56  and  _57
REMARK   25  A    between atoms: _59  and  _61
REMARK   26  A    between atoms: _61  and  _62
REMARK   27  A    between atoms: _65  and  _67
REMARK   28  A    between atoms: _67  and  _68
REMARK   29  A    between atoms: _67  and  _70
REMARK   30  A    between atoms: _70  and  _71
REMARK   31  A    between atoms: _74  and  _76
REMARK   32  A    between atoms: _76  and  _77
REMARK   33  A    between atoms: _76  and  _79
REMARK   34  A    between atoms: _79  and  _80
REMARK   35  A    between atoms: _83  and  _85
REMARK   36  A    between atoms: _85  and  _86
REMARK   37  A    between atoms: _85  and  _88
REMARK   38  A    between atoms: _88  and  _89
REMARK   39  A    between atoms: _92  and  _94
REMARK   40  A    between atoms: _94  and  _95
REMARK   41  A    between atoms: _94  and  _97
REMARK   42  A    between atoms: _100  and  _102
REMARK   43  A    between atoms: _102  and  _103
REMARK   44  A    between atoms: _102  and  _105
REMARK   45  A    between atoms: _105  and  _106
REMARK   46  A    between atoms: _106  and  _107
REMARK   47  A    between atoms: _109  and  _111
REMARK   48  A    between atoms: _111  and  _112
REMARK   49  A    between atoms: _111  and  _114
REMARK   50  A    between atoms: _114  and  _115
REMARK   51  A    between atoms: _118  and  _120
REMARK   52  A    between atoms: _120  and  _121
REMARK   53  A    between atoms: _123  and  _125
REMARK   54  A    between atoms: _125  and  _126
REMARK   55  A    between atoms: _128  and  _130
REMARK   56  A    between atoms: _130  and  _131
REMARK   57  A    between atoms: _130  and  _133
REMARK   58  A    between atoms: _133  and  _134
REMARK   59  A    between atoms: _137  and  _139
REMARK   60  A    between atoms: _139  and  _140
REMARK   61  A    between atoms: _142  and  _144
REMARK   62  A    between atoms: _144  and  _145
REMARK   63  A    between atoms: _147  and  _149
REMARK   64  A    between atoms: _149  and  _150
REMARK   65  A    between atoms: _149  and  _152
REMARK   66  A    between atoms: _152  and  _153
REMARK   67  A    between atoms: _159  and  _161
REMARK   68  A    between atoms: _161  and  _162
REMARK   69  A    between atoms: _161  and  _164
REMARK   70  A    between atoms: _164  and  _165
REMARK   71  A    between atoms: _168  and  _170
REMARK   72  A    between atoms: _170  and  _171
REMARK   73  A    between atoms: _170  and  _173
REMARK   74  A    between atoms: _173  and  _174
REMARK   75  A    between atoms: _177  and  _179
REMARK   76  A    between atoms: _179  and  _180
REMARK   77  A    between atoms: _179  and  _182
REMARK   78  A    between atoms: _182  and  _183
REMARK   79  A    between atoms: _187  and  _188
REMARK   80  A    between atoms: _193  and  _195
REMARK   81  A    between atoms: _195  and  _196
REMARK   82  A    between atoms: _195  and  _198
REMARK   83  A    between atoms: _201  and  _203
REMARK   84  A    between atoms: _203  and  _204
REMARK   85  A    between atoms: _203  and  _206
REMARK   86  A    between atoms: _206  and  _207
REMARK   87  A    between atoms: _212  and  _214
REMARK   88  A    between atoms: _214  and  _215
REMARK   89  A    between atoms: _214  and  _217
REMARK   90  A    between atoms: _217  and  _218
REMARK   91  A    between atoms: _221  and  _223
REMARK   92  A    between atoms: _223  and  _224
REMARK   93  A    between atoms: _223  and  _226
REMARK   94  A    between atoms: _226  and  _227
REMARK   95  A    between atoms: _230  and  _232
REMARK   96  A    between atoms: _232  and  _233
REMARK   97  A    between atoms: _235  and  _237
REMARK   98  A    between atoms: _237  and  _238
REMARK   99  A    between atoms: _237  and  _240
REMARK  100  A    between atoms: _240  and  _241
REMARK  101  A    between atoms: _241  and  _242
REMARK  102  A    between atoms: _242  and  _243
REMARK  103  A    between atoms: _252  and  _254
REMARK  104  A    between atoms: _254  and  _255
REMARK  105  A    between atoms: _254  and  _257
REMARK  106  A    between atoms: _257  and  _258
REMARK  107  A    between atoms: _258  and  _259
REMARK  108  A    between atoms: _259  and  _260
REMARK  109  A    between atoms: _269  and  _271
REMARK  110  A    between atoms: _271  and  _272
REMARK  111  A    between atoms: _271  and  _274
REMARK  112  A    between atoms: _274  and  _275
REMARK  113  A    between atoms: _278  and  _280
REMARK  114  A    between atoms: _280  and  _281
REMARK  115  A    between atoms: _280  and  _283
REMARK  116  A    between atoms: _283  and  _284
REMARK  117  A    between atoms: _287  and  _289
REMARK  118  A    between atoms: _289  and  _290
REMARK  119  A    between atoms: _289  and  _292
REMARK  120  A    between atoms: _292  and  _293
REMARK  121  A    between atoms: _296  and  _298
REMARK  122  A    between atoms: _298  and  _299
REMARK  123  A    between atoms: _298  and  _301
REMARK  124  A    between atoms: _301  and  _302
REMARK  125  A    between atoms: _305  and  _307
REMARK  126  A    between atoms: _307  and  _308
REMARK  127  A    between atoms: _307  and  _310
REMARK  128  A    between atoms: _310  and  _311
REMARK  129  A    between atoms: _314  and  _316
REMARK  130  A    between atoms: _316  and  _317
REMARK  131  A    between atoms: _319  and  _321
REMARK  132  A    between atoms: _321  and  _322
REMARK  133  A    between atoms: _325  and  _327
REMARK  134  A    between atoms: _327  and  _328
REMARK  135  A    between atoms: _327  and  _330
REMARK  136  A    between atoms: _330  and  _331
REMARK  137  A    between atoms: _334  and  _336
REMARK  138  A    between atoms: _336  and  _337
REMARK  139  A    between atoms: _336  and  _339
REMARK  140  A    between atoms: _339  and  _340
REMARK  141  A    between atoms: _343  and  _345
REMARK  142  A    between atoms: _345  and  _346
REMARK  143  A    between atoms: _345  and  _348
REMARK  144  A    between atoms: _348  and  _349
REMARK  145  A    between atoms: _352  and  _354
REMARK  146  A    between atoms: _354  and  _355
REMARK  147  A    between atoms: _354  and  _357
REMARK  148  A    between atoms: _360  and  _362
REMARK  149  A    between atoms: _362  and  _363
REMARK  150  A    between atoms: _362  and  _365
REMARK  151  A    between atoms: _365  and  _366
REMARK  152  A    between atoms: _366  and  _367
REMARK  153  A    between atoms: _367  and  _368
REMARK  154  A    between atoms: _368  and  _369
REMARK  155  A    between atoms: _373  and  _375
REMARK  156  A    between atoms: _375  and  _376
REMARK  157  A    between atoms: _375  and  _378
REMARK  158  A    between atoms: _378  and  _379
REMARK  159  A    between atoms: _379  and  _380
REMARK  160  A    between atoms: _382  and  _384
REMARK  161  A    between atoms: _384  and  _385
REMARK  162  A    between atoms: _384  and  _387
REMARK  163  A    between atoms: _387  and  _388
REMARK  164  A    between atoms: _391  and  _393
REMARK  165  A    between atoms: _393  and  _394
REMARK  166  A    between atoms: _396  and  _398
REMARK  167  A    between atoms: _398  and  _399
REMARK  168  A    between atoms: _401  and  _403
REMARK  169  A    between atoms: _403  and  _404
REMARK  170  A    between atoms: _403  and  _406
REMARK  171  A    between atoms: _406  and  _407
REMARK  172  A    between atoms: _410  and  _412
REMARK  173  A    between atoms: _412  and  _413
REMARK  174  A    between atoms: _415  and  _417
REMARK  175  A    between atoms: _417  and  _418
REMARK  176  A    between atoms: _420  and  _422
REMARK  177  A    between atoms: _422  and  _423
REMARK  178  A    between atoms: _422  and  _425
REMARK  179  A    between atoms: _425  and  _426
REMARK  180  A    between atoms: _432  and  _434
REMARK  181  A    between atoms: _434  and  _435
REMARK  182  A    between atoms: _434  and  _437
REMARK  183  A    between atoms: _437  and  _438
REMARK  184  A    between atoms: _441  and  _443
REMARK  185  A    between atoms: _443  and  _444
REMARK  186  A    between atoms: _443  and  _446
REMARK  187  A    between atoms: _446  and  _447
REMARK  188  A    between atoms: _450  and  _452
REMARK  189  A    between atoms: _452  and  _453
REMARK  190  A    between atoms: _452  and  _455
REMARK  191  A    between atoms: _455  and  _456
REMARK  192  A    between atoms: _460  and  _461
REMARK  193  A    between atoms: _466  and  _468
REMARK  194  A    between atoms: _468  and  _469
REMARK  195  A    between atoms: _468  and  _471
REMARK  196  A    between atoms: _474  and  _476
REMARK  197  A    between atoms: _476  and  _477
REMARK  198  A    between atoms: _476  and  _479
REMARK  199  A    between atoms: _479  and  _480
REMARK  200  A    between atoms: _485  and  _487
REMARK  201  A    between atoms: _487  and  _488
REMARK  202  A    between atoms: _487  and  _490
REMARK  203  A    between atoms: _490  and  _491
REMARK  204  A    between atoms: _494  and  _496
REMARK  205  A    between atoms: _496  and  _497
REMARK  206  A    between atoms: _496  and  _499
REMARK  207  A    between atoms: _499  and  _500
REMARK  208  A    between atoms: _503  and  _505
REMARK  209  A    between atoms: _505  and  _506
REMARK  210  A    between atoms: _508  and  _510
REMARK  211  A    between atoms: _510  and  _511
REMARK  212  A    between atoms: _510  and  _513
REMARK  213  A    between atoms: _513  and  _514
REMARK  214  A    between atoms: _514  and  _515
REMARK  215  A    between atoms: _515  and  _516
REMARK                            x       y       z     vdW  Elec       q    Type
REMARK                         _______ _______ _______ _____ _____    ______ ____
ROOT
ATOM      1  O   HOH     1      16.016  -6.130  21.270  0.00  0.00    +0.000 OA
ENDROOT
TORSDOF 0
REMARK  Name = ../refined-set-2016/1b6k/1b6k_pocket.pdb
REMARK  215 active torsions:
REMARK  status: ('A' for Active; 'I' for Inactive)
REMARK    1  A    between atoms: _1  and  _3
REMARK    2  A    between atoms: _3  and  _4
REMARK    3  A    between atoms: _3  and  _6
REMARK    4  A    between atoms: _6  and  _7
REMARK    5  A    between atoms: _7  and  _8
REMARK    6  A    between atoms: _8  and  _9
REMARK    7  A    between atoms: _18  and  _20
REMARK    8  A    between atoms: _20  and  _21
REMARK    9  A    between atoms: _20  and  _23
REMARK   10  A    between atoms: _23  and  _24
REMARK   11  A    between atoms: _27  and  _29
REMARK   12  A    between atoms: _29  and  _30
REMARK   13  A    between atoms: _29  and  _32
REMARK   14  A    between atoms: _32  and  _33
REMARK   15  A    between atoms: _36  and  _38
REMARK   16  A    between atoms: _38  and  _39
REMARK   17  A    between atoms: _38  and  _41
REMARK   18  A    between atoms: _41  and  _42
REMARK   19  A    between atoms: _45  and  _47
REMARK   20  A    between atoms: _47  and  _48
REMARK   21  A    between atoms: _47  and  _50
REMARK   22  A    between atoms: _50  and  _51
REMARK   23  A    between atoms: _54  and  _56
REMARK   24  A    between atoms: _56  and  _57
REMARK   25  A    between atoms: _59  and  _61
REMARK   26  A    between atoms: _61  and  _62
REMARK   27  A    between atoms: _65  and  _67
REMARK   28  A    between atoms: _67  and  _68
REMARK   29  A    between atoms: _67  and  _70
REMARK   30  A    between atoms: _70  and  _71
REMARK   31  A    between atoms: _74  and  _76
REMARK   32  A    between atoms: _76  and  _77
REMARK   33  A    between atoms: _76  and  _79
REMARK   34  A    between atoms: _79  and  _80
REMARK   35  A    between atoms: _83  and  _85
REMARK   36  A    between atoms: _85  and  _86
REMARK   37  A    between atoms: _85  and  _88
REMARK   38  A    between atoms: _88  and  _89
REMARK   39  A    between atoms: _92  and  _94
REMARK   40  A    between atoms: _94  and  _95
REMARK   41  A    between atoms: _94  and  _97
REMARK   42  A    between atoms: _100  and  _102
REMARK   43  A    between atoms: _102  and  _103
REMARK   44  A    between atoms: _102  and  _105
REMARK   45  A    between atoms: _105  and  _106
REMARK   46  A    between atoms: _106  and  _107
REMARK   47  A    between atoms: _109  and  _111
REMARK   48  A    between atoms: _111  and  _112
REMARK   49  A    between atoms: _111  and  _114
REMARK   50  A    between atoms: _114  and  _115
REMARK   51  A    between atoms: _118  and  _120
REMARK   52  A    between atoms: _120  and  _121
REMARK   53  A    between atoms: _123  and  _125
REMARK   54  A    between atoms: _125  and  _126
REMARK   55  A    between atoms: _128  and  _130
REMARK   56  A    between atoms: _130  and  _131
REMARK   57  A    between atoms: _130  and  _133
REMARK   58  A    between atoms: _133  and  _134
REMARK   59  A    between atoms: _137  and  _139
REMARK   60  A    between atoms: _139  and  _140
REMARK   61  A    between atoms: _142  and  _144
REMARK   62  A    between atoms: _144  and  _145
REMARK   63  A    between atoms: _147  and  _149
REMARK   64  A    between atoms: _149  and  _150
REMARK   65  A    between atoms: _149  and  _152
REMARK   66  A    between atoms: _152  and  _153
REMARK   67  A    between atoms: _159  and  _161
REMARK   68  A    between atoms: _161  and  _162
REMARK   69  A    between atoms: _161  and  _164
REMARK   70  A    between atoms: _164  and  _165
REMARK   71  A    between atoms: _168  and  _170
REMARK   72  A    between atoms: _170  and  _171
REMARK   73  A    between atoms: _170  and  _173
REMARK   74  A    between atoms: _173  and  _174
REMARK   75  A    between atoms: _177  and  _179
REMARK   76  A    between atoms: _179  and  _180
REMARK   77  A    between atoms: _179  and  _182
REMARK   78  A    between atoms: _182  and  _183
REMARK   79  A    between atoms: _187  and  _188
REMARK   80  A    between atoms: _193  and  _195
REMARK   81  A    between atoms: _195  and  _196
REMARK   82  A    between atoms: _195  and  _198
REMARK   83  A    between atoms: _201  and  _203
REMARK   84  A    between atoms: _203  and  _204
REMARK   85  A    between atoms: _203  and  _206
REMARK   86  A    between atoms: _206  and  _207
REMARK   87  A    between atoms: _212  and  _214
REMARK   88  A    between atoms: _214  and  _215
REMARK   89  A    between atoms: _214  and  _217
REMARK   90  A    between atoms: _217  and  _218
REMARK   91  A    between atoms: _221  and  _223
REMARK   92  A    between atoms: _223  and  _224
REMARK   93  A    between atoms: _223  and  _226
REMARK   94  A    between atoms: _226  and  _227
REMARK   95  A    between atoms: _230  and  _232
REMARK   96  A    between atoms: _232  and  _233
REMARK   97  A    between atoms: _235  and  _237
REMARK   98  A    between atoms: _237  and  _238
REMARK   99  A    between atoms: _237  and  _240
REMARK  100  A    between atoms: _240  and  _241
REMARK  101  A    between atoms: _241  and  _242
REMARK  102  A    between atoms: _242  and  _243
REMARK  103  A    between atoms: _252  and  _254
REMARK  104  A    between atoms: _254  and  _255
REMARK  105  A    between atoms: _254  and  _257
REMARK  106  A    between atoms: _257  and  _258
REMARK  107  A    between atoms: _258  and  _259
REMARK  108  A    between atoms: _259  and  _260
REMARK  109  A    between atoms: _269  and  _271
REMARK  110  A    between atoms: _271  and  _272
REMARK  111  A    between atoms: _271  and  _274
REMARK  112  A    between atoms: _274  and  _275
REMARK  113  A    between atoms: _278  and  _280
REMARK  114  A    between atoms: _280  and  _281
REMARK  115  A    between atoms: _280  and  _283
REMARK  116  A    between atoms: _283  and  _284
REMARK  117  A    between atoms: _287  and  _289
REMARK  118  A    between atoms: _289  and  _290
REMARK  119  A    between atoms: _289  and  _292
REMARK  120  A    between atoms: _292  and  _293
REMARK  121  A    between atoms: _296  and  _298
REMARK  122  A    between atoms: _298  and  _299
REMARK  123  A    between atoms: _298  and  _301
REMARK  124  A    between atoms: _301  and  _302
REMARK  125  A    between atoms: _305  and  _307
REMARK  126  A    between atoms: _307  and  _308
REMARK  127  A    between atoms: _307  and  _310
REMARK  128  A    between atoms: _310  and  _311
REMARK  129  A    between atoms: _314  and  _316
REMARK  130  A    between atoms: _316  and  _317
REMARK  131  A    between atoms: _319  and  _321
REMARK  132  A    between atoms: _321  and  _322
REMARK  133  A    between atoms: _325  and  _327
REMARK  134  A    between atoms: _327  and  _328
REMARK  135  A    between atoms: _327  and  _330
REMARK  136  A    between atoms: _330  and  _331
REMARK  137  A    between atoms: _334  and  _336
REMARK  138  A    between atoms: _336  and  _337
REMARK  139  A    between atoms: _336  and  _339
REMARK  140  A    between atoms: _339  and  _340
REMARK  141  A    between atoms: _343  and  _345
REMARK  142  A    between atoms: _345  and  _346
REMARK  143  A    between atoms: _345  and  _348
REMARK  144  A    between atoms: _348  and  _349
REMARK  145  A    between atoms: _352  and  _354
REMARK  146  A    between atoms: _354  and  _355
REMARK  147  A    between atoms: _354  and  _357
REMARK  148  A    between atoms: _360  and  _362
REMARK  149  A    between atoms: _362  and  _363
REMARK  150  A    between atoms: _362  and  _365
REMARK  151  A    between atoms: _365  and  _366
REMARK  152  A    between atoms: _366  and  _367
REMARK  153  A    between atoms: _367  and  _368
REMARK  154  A    between atoms: _368  and  _369
REMARK  155  A    between atoms: _373  and  _375
REMARK  156  A    between atoms: _375  and  _376
REMARK  157  A    between atoms: _375  and  _378
REMARK  158  A    between atoms: _378  and  _379
REMARK  159  A    between atoms: _379  and  _380
REMARK  160  A    between atoms: _382  and  _384
REMARK  161  A    between atoms: _384  and  _385
REMARK  162  A    between atoms: _384  and  _387
REMARK  163  A    between atoms: _387  and  _388
REMARK  164  A    between atoms: _391  and  _393
REMARK  165  A    between atoms: _393  and  _394
REMARK  166  A    between atoms: _396  and  _398
REMARK  167  A    between atoms: _398  and  _399
REMARK  168  A    between atoms: _401  and  _403
REMARK  169  A    between atoms: _403  and  _404
REMARK  170  A    between atoms: _403  and  _406
REMARK  171  A    between atoms: _406  and  _407
REMARK  172  A    between atoms: _410  and  _412
REMARK  173  A    between atoms: _412  and  _413
REMARK  174  A    between atoms: _415  and  _417
REMARK  175  A    between atoms: _417  and  _418
REMARK  176  A    between atoms: _420  and  _422
REMARK  177  A    between atoms: _422  and  _423
REMARK  178  A    between atoms: _422  and  _425
REMARK  179  A    between atoms: _425  and  _426
REMARK  180  A    between atoms: _432  and  _434
REMARK  181  A    between atoms: _434  and  _435
REMARK  182  A    between atoms: _434  and  _437
REMARK  183  A    between atoms: _437  and  _438
REMARK  184  A    between atoms: _441  and  _443
REMARK  185  A    between atoms: _443  and  _444
REMARK  186  A    between atoms: _443  and  _446
REMARK  187  A    between atoms: _446  and  _447
REMARK  188  A    between atoms: _450  and  _452
REMARK  189  A    between atoms: _452  and  _453
REMARK  190  A    between atoms: _452  and  _455
REMARK  191  A    between atoms: _455  and  _456
REMARK  192  A    between atoms: _460  and  _461
REMARK  193  A    between atoms: _466  and  _468
REMARK  194  A    between atoms: _468  and  _469
REMARK  195  A    between atoms: _468  and  _471
REMARK  196  A    between atoms: _474  and  _476
REMARK  197  A    between atoms: _476  and  _477
REMARK  198  A    between atoms: _476  and  _479
REMARK  199  A    between atoms: _479  and  _480
REMARK  200  A    between atoms: _485  and  _487
REMARK  201  A    between atoms: _487  and  _488
REMARK  202  A    between atoms: _487  and  _490
REMARK  203  A    between atoms: _490  and  _491
REMARK  204  A    between atoms: _494  and  _496
REMARK  205  A    between atoms: _496  and  _497
REMARK  206  A    between atoms: _496  and  _499
REMARK  207  A    between atoms: _499  and  _500
REMARK  208  A    between atoms: _503  and  _505
REMARK  209  A    between atoms: _505  and  _506
REMARK  210  A    between atoms: _508  and  _510
REMARK  211  A    between atoms: _510  and  _511
REMARK  212  A    between atoms: _510  and  _513
REMARK  213  A    between atoms: _513  and  _514
REMARK  214  A    between atoms: _514  and  _515
REMARK  215  A    between atoms: _515  and  _516
REMARK                            x       y       z     vdW  Elec       q    Type
REMARK                         _______ _______ _______ _____ _____    ______ ____
ROOT
ATOM      1  O   HOH     1       4.853  -5.149  21.436  0.00  0.00    +0.000 OA
ENDROOT
TORSDOF 0
REMARK  Name = ../refined-set-2016/1b6k/1b6k_pocket.pdb
REMARK  215 active torsions:
REMARK  status: ('A' for Active; 'I' for Inactive)
REMARK    1  A    between atoms: _1  and  _3
REMARK    2  A    between atoms: _3  and  _4
REMARK    3  A    between atoms: _3  and  _6
REMARK    4  A    between atoms: _6  and  _7
REMARK    5  A    between atoms: _7  and  _8
REMARK    6  A    between atoms: _8  and  _9
REMARK    7  A    between atoms: _18  and  _20
REMARK    8  A    between atoms: _20  and  _21
REMARK    9  A    between atoms: _20  and  _23
REMARK   10  A    between atoms: _23  and  _24
REMARK   11  A    between atoms: _27  and  _29
REMARK   12  A    between atoms: _29  and  _30
REMARK   13  A    between atoms: _29  and  _32
REMARK   14  A    between atoms: _32  and  _33
REMARK   15  A    between atoms: _36  and  _38
REMARK   16  A    between atoms: _38  and  _39
REMARK   17  A    between atoms: _38  and  _41
REMARK   18  A    between atoms: _41  and  _42
REMARK   19  A    between atoms: _45  and  _47
REMARK   20  A    between atoms: _47  and  _48
REMARK   21  A    between atoms: _47  and  _50
REMARK   22  A    between atoms: _50  and  _51
REMARK   23  A    between atoms: _54  and  _56
REMARK   24  A    between atoms: _56  and  _57
REMARK   25  A    between atoms: _59  and  _61
REMARK   26  A    between atoms: _61  and  _62
REMARK   27  A    between atoms: _65  and  _67
REMARK   28  A    between atoms: _67  and  _68
REMARK   29  A    between atoms: _67  and  _70
REMARK   30  A    between atoms: _70  and  _71
REMARK   31  A    between atoms: _74  and  _76
REMARK   32  A    between atoms: _76  and  _77
REMARK   33  A    between atoms: _76  and  _79
REMARK   34  A    between atoms: _79  and  _80
REMARK   35  A    between atoms: _83  and  _85
REMARK   36  A    between atoms: _85  and  _86
REMARK   37  A    between atoms: _85  and  _88
REMARK   38  A    between atoms: _88  and  _89
REMARK   39  A    between atoms: _92  and  _94
REMARK   40  A    between atoms: _94  and  _95
REMARK   41  A    between atoms: _94  and  _97
REMARK   42  A    between atoms: _100  and  _102
REMARK   43  A    between atoms: _102  and  _103
REMARK   44  A    between atoms: _102  and  _105
REMARK   45  A    between atoms: _105  and  _106
REMARK   46  A    between atoms: _106  and  _107
REMARK   47  A    between atoms: _109  and  _111
REMARK   48  A    between atoms: _111  and  _112
REMARK   49  A    between atoms: _111  and  _114
REMARK   50  A    between atoms: _114  and  _115
REMARK   51  A    between atoms: _118  and  _120
REMARK   52  A    between atoms: _120  and  _121
REMARK   53  A    between atoms: _123  and  _125
REMARK   54  A    between atoms: _125  and  _126
REMARK   55  A    between atoms: _128  and  _130
REMARK   56  A    between atoms: _130  and  _131
REMARK   57  A    between atoms: _130  and  _133
REMARK   58  A    between atoms: _133  and  _134
REMARK   59  A    between atoms: _137  and  _139
REMARK   60  A    between atoms: _139  and  _140
REMARK   61  A    between atoms: _142  and  _144
REMARK   62  A    between atoms: _144  and  _145
REMARK   63  A    between atoms: _147  and  _149
REMARK   64  A    between atoms: _149  and  _150
REMARK   65  A    between atoms: _149  and  _152
REMARK   66  A    between atoms: _152  and  _153
REMARK   67  A    between atoms: _159  and  _161
REMARK   68  A    between atoms: _161  and  _162
REMARK   69  A    between atoms: _161  and  _164
REMARK   70  A    between atoms: _164  and  _165
REMARK   71  A    between atoms: _168  and  _170
REMARK   72  A    between atoms: _170  and  _171
REMARK   73  A    between atoms: _170  and  _173
REMARK   74  A    between atoms: _173  and  _174
REMARK   75  A    between atoms: _177  and  _179
REMARK   76  A    between atoms: _179  and  _180
REMARK   77  A    between atoms: _179  and  _182
REMARK   78  A    between atoms: _182  and  _183
REMARK   79  A    between atoms: _187  and  _188
REMARK   80  A    between atoms: _193  and  _195
REMARK   81  A    between atoms: _195  and  _196
REMARK   82  A    between atoms: _195  and  _198
REMARK   83  A    between atoms: _201  and  _203
REMARK   84  A    between atoms: _203  and  _204
REMARK   85  A    between atoms: _203  and  _206
REMARK   86  A    between atoms: _206  and  _207
REMARK   87  A    between atoms: _212  and  _214
REMARK   88  A    between atoms: _214  and  _215
REMARK   89  A    between atoms: _214  and  _217
REMARK   90  A    between atoms: _217  and  _218
REMARK   91  A    between atoms: _221  and  _223
REMARK   92  A    between atoms: _223  and  _224
REMARK   93  A    between atoms: _223  and  _226
REMARK   94  A    between atoms: _226  and  _227
REMARK   95  A    between atoms: _230  and  _232
REMARK   96  A    between atoms: _232  and  _233
REMARK   97  A    between atoms: _235  and  _237
REMARK   98  A    between atoms: _237  and  _238
REMARK   99  A    between atoms: _237  and  _240
REMARK  100  A    between atoms: _240  and  _241
REMARK  101  A    between atoms: _241  and  _242
REMARK  102  A    between atoms: _242  and  _243
REMARK  103  A    between atoms: _252  and  _254
REMARK  104  A    between atoms: _254  and  _255
REMARK  105  A    between atoms: _254  and  _257
REMARK  106  A    between atoms: _257  and  _258
REMARK  107  A    between atoms: _258  and  _259
REMARK  108  A    between atoms: _259  and  _260
REMARK  109  A    between atoms: _269  and  _271
REMARK  110  A    between atoms: _271  and  _272
REMARK  111  A    between atoms: _271  and  _274
REMARK  112  A    between atoms: _274  and  _275
REMARK  113  A    between atoms: _278  and  _280
REMARK  114  A    between atoms: _280  and  _281
REMARK  115  A    between atoms: _280  and  _283
REMARK  116  A    between atoms: _283  and  _284
REMARK  117  A    between atoms: _287  and  _289
REMARK  118  A    between atoms: _289  and  _290
REMARK  119  A    between atoms: _289  and  _292
REMARK  120  A    between atoms: _292  and  _293
REMARK  121  A    between atoms: _296  and  _298
REMARK  122  A    between atoms: _298  and  _299
REMARK  123  A    between atoms: _298  and  _301
REMARK  124  A    between atoms: _301  and  _302
REMARK  125  A    between atoms: _305  and  _307
REMARK  126  A    between atoms: _307  and  _308
REMARK  127  A    between atoms: _307  and  _310
REMARK  128  A    between atoms: _310  and  _311
REMARK  129  A    between atoms: _314  and  _316
REMARK  130  A    between atoms: _316  and  _317
REMARK  131  A    between atoms: _319  and  _321
REMARK  132  A    between atoms: _321  and  _322
REMARK  133  A    between atoms: _325  and  _327
REMARK  134  A    between atoms: _327  and  _328
REMARK  135  A    between atoms: _327  and  _330
REMARK  136  A    between atoms: _330  and  _331
REMARK  137  A    between atoms: _334  and  _336
REMARK  138  A    between atoms: _336  and  _337
REMARK  139  A    between atoms: _336  and  _339
REMARK  140  A    between atoms: _339  and  _340
REMARK  141  A    between atoms: _343  and  _345
REMARK  142  A    between atoms: _345  and  _346
REMARK  143  A    between atoms: _345  and  _348
REMARK  144  A    between atoms: _348  and  _349
REMARK  145  A    between atoms: _352  and  _354
REMARK  146  A    between atoms: _354  and  _355
REMARK  147  A    between atoms: _354  and  _357
REMARK  148  A    between atoms: _360  and  _362
REMARK  149  A    between atoms: _362  and  _363
REMARK  150  A    between atoms: _362  and  _365
REMARK  151  A    between atoms: _365  and  _366
REMARK  152  A    between atoms: _366  and  _367
REMARK  153  A    between atoms: _367  and  _368
REMARK  154  A    between atoms: _368  and  _369
REMARK  155  A    between atoms: _373  and  _375
REMARK  156  A    between atoms: _375  and  _376
REMARK  157  A    between atoms: _375  and  _378
REMARK  158  A    between atoms: _378  and  _379
REMARK  159  A    between atoms: _379  and  _380
REMARK  160  A    between atoms: _382  and  _384
REMARK  161  A    between atoms: _384  and  _385
REMARK  162  A    between atoms: _384  and  _387
REMARK  163  A    between atoms: _387  and  _388
REMARK  164  A    between atoms: _391  and  _393
REMARK  165  A    between atoms: _393  and  _394
REMARK  166  A    between atoms: _396  and  _398
REMARK  167  A    between atoms: _398  and  _399
REMARK  168  A    between atoms: _401  and  _403
REMARK  169  A    between atoms: _403  and  _404
REMARK  170  A    between atoms: _403  and  _406
REMARK  171  A    between atoms: _406  and  _407
REMARK  172  A    between atoms: _410  and  _412
REMARK  173  A    between atoms: _412  and  _413
REMARK  174  A    between atoms: _415  and  _417
REMARK  175  A    between atoms: _417  and  _418
REMARK  176  A    between atoms: _420  and  _422
REMARK  177  A    between atoms: _422  and  _423
REMARK  178  A    between atoms: _422  and  _425
REMARK  179  A    between atoms: _425  and  _426
REMARK  180  A    between atoms: _432  and  _434
REMARK  181  A    between atoms: _434  and  _435
REMARK  182  A    between atoms: _434  and  _437
REMARK  183  A    between atoms: _437  and  _438
REMARK  184  A    between atoms: _441  and  _443
REMARK  185  A    between atoms: _443  and  _444
REMARK  186  A    between atoms: _443  and  _446
REMARK  187  A    between atoms: _446  and  _447
REMARK  188  A    between atoms: _450  and  _452
REMARK  189  A    between atoms: _452  and  _453
REMARK  190  A    between atoms: _452  and  _455
REMARK  191  A    between atoms: _455  and  _456
REMARK  192  A    between atoms: _460  and  _461
REMARK  193  A    between atoms: _466  and  _468
REMARK  194  A    between atoms: _468  and  _469
REMARK  195  A    between atoms: _468  and  _471
REMARK  196  A    between atoms: _474  and  _476
REMARK  197  A    between atoms: _476  and  _477
REMARK  198  A    between atoms: _476  and  _479
REMARK  199  A    between atoms: _479  and  _480
REMARK  200  A    between atoms: _485  and  _487
REMARK  201  A    between atoms: _487  and  _488
REMARK  202  A    between atoms: _487  and  _490
REMARK  203  A    between atoms: _490  and  _491
REMARK  204  A    between atoms: _494  and  _496
REMARK  205  A    between atoms: _496  and  _497
REMARK  206  A    between atoms: _496  and  _499
REMARK  207  A    between atoms: _499  and  _500
REMARK  208  A    between atoms: _503  and  _505
REMARK  209  A    between atoms: _505  and  _506
REMARK  210  A    between atoms: _508  and  _510
REMARK  211  A    between atoms: _510  and  _511
REMARK  212  A    between atoms: _510  and  _513
REMARK  213  A    between atoms: _513  and  _514
REMARK  214  A    between atoms: _514  and  _515
REMARK  215  A    between atoms: _515  and  _516
REMARK                            x       y       z     vdW  Elec       q    Type
REMARK                         _______ _______ _______ _____ _____    ______ ____
ROOT
ATOM      1  O   HOH     1      10.638   9.107  10.898  0.00  0.00    +0.000 OA
ENDROOT
TORSDOF 0
REMARK  Name = ../refined-set-2016/1b6k/1b6k_pocket.pdb
REMARK  215 active torsions:
REMARK  status: ('A' for Active; 'I' for Inactive)
REMARK    1  A    between atoms: _1  and  _3
REMARK    2  A    between atoms: _3  and  _4
REMARK    3  A    between atoms: _3  and  _6
REMARK    4  A    between atoms: _6  and  _7
REMARK    5  A    between atoms: _7  and  _8
REMARK    6  A    between atoms: _8  and  _9
REMARK    7  A    between atoms: _18  and  _20
REMARK    8  A    between atoms: _20  and  _21
REMARK    9  A    between atoms: _20  and  _23
REMARK   10  A    between atoms: _23  and  _24
REMARK   11  A    between atoms: _27  and  _29
REMARK   12  A    between atoms: _29  and  _30
REMARK   13  A    between atoms: _29  and  _32
REMARK   14  A    between atoms: _32  and  _33
REMARK   15  A    between atoms: _36  and  _38
REMARK   16  A    between atoms: _38  and  _39
REMARK   17  A    between atoms: _38  and  _41
REMARK   18  A    between atoms: _41  and  _42
REMARK   19  A    between atoms: _45  and  _47
REMARK   20  A    between atoms: _47  and  _48
REMARK   21  A    between atoms: _47  and  _50
REMARK   22  A    between atoms: _50  and  _51
REMARK   23  A    between atoms: _54  and  _56
REMARK   24  A    between atoms: _56  and  _57
REMARK   25  A    between atoms: _59  and  _61
REMARK   26  A    between atoms: _61  and  _62
REMARK   27  A    between atoms: _65  and  _67
REMARK   28  A    between atoms: _67  and  _68
REMARK   29  A    between atoms: _67  and  _70
REMARK   30  A    between atoms: _70  and  _71
REMARK   31  A    between atoms: _74  and  _76
REMARK   32  A    between atoms: _76  and  _77
REMARK   33  A    between atoms: _76  and  _79
REMARK   34  A    between atoms: _79  and  _80
REMARK   35  A    between atoms: _83  and  _85
REMARK   36  A    between atoms: _85  and  _86
REMARK   37  A    between atoms: _85  and  _88
REMARK   38  A    between atoms: _88  and  _89
REMARK   39  A    between atoms: _92  and  _94
REMARK   40  A    between atoms: _94  and  _95
REMARK   41  A    between atoms: _94  and  _97
REMARK   42  A    between atoms: _100  and  _102
REMARK   43  A    between atoms: _102  and  _103
REMARK   44  A    between atoms: _102  and  _105
REMARK   45  A    between atoms: _105  and  _106
REMARK   46  A    between atoms: _106  and  _107
REMARK   47  A    between atoms: _109  and  _111
REMARK   48  A    between atoms: _111  and  _112
REMARK   49  A    between atoms: _111  and  _114
REMARK   50  A    between atoms: _114  and  _115
REMARK   51  A    between atoms: _118  and  _120
REMARK   52  A    between atoms: _120  and  _121
REMARK   53  A    between atoms: _123  and  _125
REMARK   54  A    between atoms: _125  and  _126
REMARK   55  A    between atoms: _128  and  _130
REMARK   56  A    between atoms: _130  and  _131
REMARK   57  A    between atoms: _130  and  _133
REMARK   58  A    between atoms: _133  and  _134
REMARK   59  A    between atoms: _137  and  _139
REMARK   60  A    between atoms: _139  and  _140
REMARK   61  A    between atoms: _142  and  _144
REMARK   62  A    between atoms: _144  and  _145
REMARK   63  A    between atoms: _147  and  _149
REMARK   64  A    between atoms: _149  and  _150
REMARK   65  A    between atoms: _149  and  _152
REMARK   66  A    between atoms: _152  and  _153
REMARK   67  A    between atoms: _159  and  _161
REMARK   68  A    between atoms: _161  and  _162
REMARK   69  A    between atoms: _161  and  _164
REMARK   70  A    between atoms: _164  and  _165
REMARK   71  A    between atoms: _168  and  _170
REMARK   72  A    between atoms: _170  and  _171
REMARK   73  A    between atoms: _170  and  _173
REMARK   74  A    between atoms: _173  and  _174
REMARK   75  A    between atoms: _177  and  _179
REMARK   76  A    between atoms: _179  and  _180
REMARK   77  A    between atoms: _179  and  _182
REMARK   78  A    between atoms: _182  and  _183
REMARK   79  A    between atoms: _187  and  _188
REMARK   80  A    between atoms: _193  and  _195
REMARK   81  A    between atoms: _195  and  _196
REMARK   82  A    between atoms: _195  and  _198
REMARK   83  A    between atoms: _201  and  _203
REMARK   84  A    between atoms: _203  and  _204
REMARK   85  A    between atoms: _203  and  _206
REMARK   86  A    between atoms: _206  and  _207
REMARK   87  A    between atoms: _212  and  _214
REMARK   88  A    between atoms: _214  and  _215
REMARK   89  A    between atoms: _214  and  _217
REMARK   90  A    between atoms: _217  and  _218
REMARK   91  A    between atoms: _221  and  _223
REMARK   92  A    between atoms: _223  and  _224
REMARK   93  A    between atoms: _223  and  _226
REMARK   94  A    between atoms: _226  and  _227
REMARK   95  A    between atoms: _230  and  _232
REMARK   96  A    between atoms: _232  and  _233
REMARK   97  A    between atoms: _235  and  _237
REMARK   98  A    between atoms: _237  and  _238
REMARK   99  A    between atoms: _237  and  _240
REMARK  100  A    between atoms: _240  and  _241
REMARK  101  A    between atoms: _241  and  _242
REMARK  102  A    between atoms: _242  and  _243
REMARK  103  A    between atoms: _252  and  _254
REMARK  104  A    between atoms: _254  and  _255
REMARK  105  A    between atoms: _254  and  _257
REMARK  106  A    between atoms: _257  and  _258
REMARK  107  A    between atoms: _258  and  _259
REMARK  108  A    between atoms: _259  and  _260
REMARK  109  A    between atoms: _269  and  _271
REMARK  110  A    between atoms: _271  and  _272
REMARK  111  A    between atoms: _271  and  _274
REMARK  112  A    between atoms: _274  and  _275
REMARK  113  A    between atoms: _278  and  _280
REMARK  114  A    between atoms: _280  and  _281
REMARK  115  A    between atoms: _280  and  _283
REMARK  116  A    between atoms: _283  and  _284
REMARK  117  A    between atoms: _287  and  _289
REMARK  118  A    between atoms: _289  and  _290
REMARK  119  A    between atoms: _289  and  _292
REMARK  120  A    between atoms: _292  and  _293
REMARK  121  A    between atoms: _296  and  _298
REMARK  122  A    between atoms: _298  and  _299
REMARK  123  A    between atoms: _298  and  _301
REMARK  124  A    between atoms: _301  and  _302
REMARK  125  A    between atoms: _305  and  _307
REMARK  126  A    between atoms: _307  and  _308
REMARK  127  A    between atoms: _307  and  _310
REMARK  128  A    between atoms: _310  and  _311
REMARK  129  A    between atoms: _314  and  _316
REMARK  130  A    between atoms: _316  and  _317
REMARK  131  A    between atoms: _319  and  _321
REMARK  132  A    between atoms: _321  and  _322
REMARK  133  A    between atoms: _325  and  _327
REMARK  134  A    between atoms: _327  and  _328
REMARK  135  A    between atoms: _327  and  _330
REMARK  136  A    between atoms: _330  and  _331
REMARK  137  A    between atoms: _334  and  _336
REMARK  138  A    between atoms: _336  and  _337
REMARK  139  A    between atoms: _336  and  _339
REMARK  140  A    between atoms: _339  and  _340
REMARK  141  A    between atoms: _343  and  _345
REMARK  142  A    between atoms: _345  and  _346
REMARK  143  A    between atoms: _345  and  _348
REMARK  144  A    between atoms: _348  and  _349
REMARK  145  A    between atoms: _352  and  _354
REMARK  146  A    between atoms: _354  and  _355
REMARK  147  A    between atoms: _354  and  _357
REMARK  148  A    between atoms: _360  and  _362
REMARK  149  A    between atoms: _362  and  _363
REMARK  150  A    between atoms: _362  and  _365
REMARK  151  A    between atoms: _365  and  _366
REMARK  152  A    between atoms: _366  and  _367
REMARK  153  A    between atoms: _367  and  _368
REMARK  154  A    between atoms: _368  and  _369
REMARK  155  A    between atoms: _373  and  _375
REMARK  156  A    between atoms: _375  and  _376
REMARK  157  A    between atoms: _375  and  _378
REMARK  158  A    between atoms: _378  and  _379
REMARK  159  A    between atoms: _379  and  _380
REMARK  160  A    between atoms: _382  and  _384
REMARK  161  A    between atoms: _384  and  _385
REMARK  162  A    between atoms: _384  and  _387
REMARK  163  A    between atoms: _387  and  _388
REMARK  164  A    between atoms: _391  and  _393
REMARK  165  A    between atoms: _393  and  _394
REMARK  166  A    between atoms: _396  and  _398
REMARK  167  A    between atoms: _398  and  _399
REMARK  168  A    between atoms: _401  and  _403
REMARK  169  A    between atoms: _403  and  _404
REMARK  170  A    between atoms: _403  and  _406
REMARK  171  A    between atoms: _406  and  _407
REMARK  172  A    between atoms: _410  and  _412
REMARK  173  A    between atoms: _412  and  _413
REMARK  174  A    between atoms: _415  and  _417
REMARK  175  A    between atoms: _417  and  _418
REMARK  176  A    between atoms: _420  and  _422
REMARK  177  A    between atoms: _422  and  _423
REMARK  178  A    between atoms: _422  and  _425
REMARK  179  A    between atoms: _425  and  _426
REMARK  180  A    between atoms: _432  and  _434
REMARK  181  A    between atoms: _434  and  _435
REMARK  182  A    between atoms: _434  and  _437
REMARK  183  A    between atoms: _437  and  _438
REMARK  184  A    between atoms: _441  and  _443
REMARK  185  A    between atoms: _443  and  _444
REMARK  186  A    between atoms: _443  and  _446
REMARK  187  A    between atoms: _446  and  _447
REMARK  188  A    between atoms: _450  and  _452
REMARK  189  A    between atoms: _452  and  _453
REMARK  190  A    between atoms: _452  and  _455
REMARK  191  A    between atoms: _455  and  _456
REMARK  192  A    between atoms: _460  and  _461
REMARK  193  A    between atoms: _466  and  _468
REMARK  194  A    between atoms: _468  and  _469
REMARK  195  A    between atoms: _468  and  _471
REMARK  196  A    between atoms: _474  and  _476
REMARK  197  A    between atoms: _476  and  _477
REMARK  198  A    between atoms: _476  and  _479
REMARK  199  A    between atoms: _479  and  _480
REMARK  200  A    between atoms: _485  and  _487
REMARK  201  A    between atoms: _487  and  _488
REMARK  202  A    between atoms: _487  and  _490
REMARK  203  A    between atoms: _490  and  _491
REMARK  204  A    between atoms: _494  and  _496
REMARK  205  A    between atoms: _496  and  _497
REMARK  206  A    between atoms: _496  and  _499
REMARK  207  A    between atoms: _499  and  _500
REMARK  208  A    between atoms: _503  and  _505
REMARK  209  A    between atoms: _505  and  _506
REMARK  210  A    between atoms: _508  and  _510
REMARK  211  A    between atoms: _510  and  _511
REMARK  212  A    between atoms: _510  and  _513
REMARK  213  A    between atoms: _513  and  _514
REMARK  214  A    between atoms: _514  and  _515
REMARK  215  A    between atoms: _515  and  _516
REMARK                            x       y       z     vdW  Elec       q    Type
REMARK                         _______ _______ _______ _____ _____    ______ ____
ROOT
ATOM      1  O   HOH     1       7.345   6.631   6.775  0.00  0.00    +0.000 OA
ENDROOT
TORSDOF 0
REMARK  Name = ../refined-set-2016/1b6k/1b6k_pocket.pdb
REMARK  215 active torsions:
REMARK  status: ('A' for Active; 'I' for Inactive)
REMARK    1  A    between atoms: _1  and  _3
REMARK    2  A    between atoms: _3  and  _4
REMARK    3  A    between atoms: _3  and  _6
REMARK    4  A    between atoms: _6  and  _7
REMARK    5  A    between atoms: _7  and  _8
REMARK    6  A    between atoms: _8  and  _9
REMARK    7  A    between atoms: _18  and  _20
REMARK    8  A    between atoms: _20  and  _21
REMARK    9  A    between atoms: _20  and  _23
REMARK   10  A    between atoms: _23  and  _24
REMARK   11  A    between atoms: _27  and  _29
REMARK   12  A    between atoms: _29  and  _30
REMARK   13  A    between atoms: _29  and  _32
REMARK   14  A    between atoms: _32  and  _33
REMARK   15  A    between atoms: _36  and  _38
REMARK   16  A    between atoms: _38  and  _39
REMARK   17  A    between atoms: _38  and  _41
REMARK   18  A    between atoms: _41  and  _42
REMARK   19  A    between atoms: _45  and  _47
REMARK   20  A    between atoms: _47  and  _48
REMARK   21  A    between atoms: _47  and  _50
REMARK   22  A    between atoms: _50  and  _51
REMARK   23  A    between atoms: _54  and  _56
REMARK   24  A    between atoms: _56  and  _57
REMARK   25  A    between atoms: _59  and  _61
REMARK   26  A    between atoms: _61  and  _62
REMARK   27  A    between atoms: _65  and  _67
REMARK   28  A    between atoms: _67  and  _68
REMARK   29  A    between atoms: _67  and  _70
REMARK   30  A    between atoms: _70  and  _71
REMARK   31  A    between atoms: _74  and  _76
REMARK   32  A    between atoms: _76  and  _77
REMARK   33  A    between atoms: _76  and  _79
REMARK   34  A    between atoms: _79  and  _80
REMARK   35  A    between atoms: _83  and  _85
REMARK   36  A    between atoms: _85  and  _86
REMARK   37  A    between atoms: _85  and  _88
REMARK   38  A    between atoms: _88  and  _89
REMARK   39  A    between atoms: _92  and  _94
REMARK   40  A    between atoms: _94  and  _95
REMARK   41  A    between atoms: _94  and  _97
REMARK   42  A    between atoms: _100  and  _102
REMARK   43  A    between atoms: _102  and  _103
REMARK   44  A    between atoms: _102  and  _105
REMARK   45  A    between atoms: _105  and  _106
REMARK   46  A    between atoms: _106  and  _107
REMARK   47  A    between atoms: _109  and  _111
REMARK   48  A    between atoms: _111  and  _112
REMARK   49  A    between atoms: _111  and  _114
REMARK   50  A    between atoms: _114  and  _115
REMARK   51  A    between atoms: _118  and  _120
REMARK   52  A    between atoms: _120  and  _121
REMARK   53  A    between atoms: _123  and  _125
REMARK   54  A    between atoms: _125  and  _126
REMARK   55  A    between atoms: _128  and  _130
REMARK   56  A    between atoms: _130  and  _131
REMARK   57  A    between atoms: _130  and  _133
REMARK   58  A    between atoms: _133  and  _134
REMARK   59  A    between atoms: _137  and  _139
REMARK   60  A    between atoms: _139  and  _140
REMARK   61  A    between atoms: _142  and  _144
REMARK   62  A    between atoms: _144  and  _145
REMARK   63  A    between atoms: _147  and  _149
REMARK   64  A    between atoms: _149  and  _150
REMARK   65  A    between atoms: _149  and  _152
REMARK   66  A    between atoms: _152  and  _153
REMARK   67  A    between atoms: _159  and  _161
REMARK   68  A    between atoms: _161  and  _162
REMARK   69  A    between atoms: _161  and  _164
REMARK   70  A    between atoms: _164  and  _165
REMARK   71  A    between atoms: _168  and  _170
REMARK   72  A    between atoms: _170  and  _171
REMARK   73  A    between atoms: _170  and  _173
REMARK   74  A    between atoms: _173  and  _174
REMARK   75  A    between atoms: _177  and  _179
REMARK   76  A    between atoms: _179  and  _180
REMARK   77  A    between atoms: _179  and  _182
REMARK   78  A    between atoms: _182  and  _183
REMARK   79  A    between atoms: _187  and  _188
REMARK   80  A    between atoms: _193  and  _195
REMARK   81  A    between atoms: _195  and  _196
REMARK   82  A    between atoms: _195  and  _198
REMARK   83  A    between atoms: _201  and  _203
REMARK   84  A    between atoms: _203  and  _204
REMARK   85  A    between atoms: _203  and  _206
REMARK   86  A    between atoms: _206  and  _207
REMARK   87  A    between atoms: _212  and  _214
REMARK   88  A    between atoms: _214  and  _215
REMARK   89  A    between atoms: _214  and  _217
REMARK   90  A    between atoms: _217  and  _218
REMARK   91  A    between atoms: _221  and  _223
REMARK   92  A    between atoms: _223  and  _224
REMARK   93  A    between atoms: _223  and  _226
REMARK   94  A    between atoms: _226  and  _227
REMARK   95  A    between atoms: _230  and  _232
REMARK   96  A    between atoms: _232  and  _233
REMARK   97  A    between atoms: _235  and  _237
REMARK   98  A    between atoms: _237  and  _238
REMARK   99  A    between atoms: _237  and  _240
REMARK  100  A    between atoms: _240  and  _241
REMARK  101  A    between atoms: _241  and  _242
REMARK  102  A    between atoms: _242  and  _243
REMARK  103  A    between atoms: _252  and  _254
REMARK  104  A    between atoms: _254  and  _255
REMARK  105  A    between atoms: _254  and  _257
REMARK  106  A    between atoms: _257  and  _258
REMARK  107  A    between atoms: _258  and  _259
REMARK  108  A    between atoms: _259  and  _260
REMARK  109  A    between atoms: _269  and  _271
REMARK  110  A    between atoms: _271  and  _272
REMARK  111  A    between atoms: _271  and  _274
REMARK  112  A    between atoms: _274  and  _275
REMARK  113  A    between atoms: _278  and  _280
REMARK  114  A    between atoms: _280  and  _281
REMARK  115  A    between atoms: _280  and  _283
REMARK  116  A    between atoms: _283  and  _284
REMARK  117  A    between atoms: _287  and  _289
REMARK  118  A    between atoms: _289  and  _290
REMARK  119  A    between atoms: _289  and  _292
REMARK  120  A    between atoms: _292  and  _293
REMARK  121  A    between atoms: _296  and  _298
REMARK  122  A    between atoms: _298  and  _299
REMARK  123  A    between atoms: _298  and  _301
REMARK  124  A    between atoms: _301  and  _302
REMARK  125  A    between atoms: _305  and  _307
REMARK  126  A    between atoms: _307  and  _308
REMARK  127  A    between atoms: _307  and  _310
REMARK  128  A    between atoms: _310  and  _311
REMARK  129  A    between atoms: _314  and  _316
REMARK  130  A    between atoms: _316  and  _317
REMARK  131  A    between atoms: _319  and  _321
REMARK  132  A    between atoms: _321  and  _322
REMARK  133  A    between atoms: _325  and  _327
REMARK  134  A    between atoms: _327  and  _328
REMARK  135  A    between atoms: _327  and  _330
REMARK  136  A    between atoms: _330  and  _331
REMARK  137  A    between atoms: _334  and  _336
REMARK  138  A    between atoms: _336  and  _337
REMARK  139  A    between atoms: _336  and  _339
REMARK  140  A    between atoms: _339  and  _340
REMARK  141  A    between atoms: _343  and  _345
REMARK  142  A    between atoms: _345  and  _346
REMARK  143  A    between atoms: _345  and  _348
REMARK  144  A    between atoms: _348  and  _349
REMARK  145  A    between atoms: _352  and  _354
REMARK  146  A    between atoms: _354  and  _355
REMARK  147  A    between atoms: _354  and  _357
REMARK  148  A    between atoms: _360  and  _362
REMARK  149  A    between atoms: _362  and  _363
REMARK  150  A    between atoms: _362  and  _365
REMARK  151  A    between atoms: _365  and  _366
REMARK  152  A    between atoms: _366  and  _367
REMARK  153  A    between atoms: _367  and  _368
REMARK  154  A    between atoms: _368  and  _369
REMARK  155  A    between atoms: _373  and  _375
REMARK  156  A    between atoms: _375  and  _376
REMARK  157  A    between atoms: _375  and  _378
REMARK  158  A    between atoms: _378  and  _379
REMARK  159  A    between atoms: _379  and  _380
REMARK  160  A    between atoms: _382  and  _384
REMARK  161  A    between atoms: _384  and  _385
REMARK  162  A    between atoms: _384  and  _387
REMARK  163  A    between atoms: _387  and  _388
REMARK  164  A    between atoms: _391  and  _393
REMARK  165  A    between atoms: _393  and  _394
REMARK  166  A    between atoms: _396  and  _398
REMARK  167  A    between atoms: _398  and  _399
REMARK  168  A    between atoms: _401  and  _403
REMARK  169  A    between atoms: _403  and  _404
REMARK  170  A    between atoms: _403  and  _406
REMARK  171  A    between atoms: _406  and  _407
REMARK  172  A    between atoms: _410  and  _412
REMARK  173  A    between atoms: _412  and  _413
REMARK  174  A    between atoms: _415  and  _417
REMARK  175  A    between atoms: _417  and  _418
REMARK  176  A    between atoms: _420  and  _422
REMARK  177  A    between atoms: _422  and  _423
REMARK  178  A    between atoms: _422  and  _425
REMARK  179  A    between atoms: _425  and  _426
REMARK  180  A    between atoms: _432  and  _434
REMARK  181  A    between atoms: _434  and  _435
REMARK  182  A    between atoms: _434  and  _437
REMARK  183  A    between atoms: _437  and  _438
REMARK  184  A    between atoms: _441  and  _443
REMARK  185  A    between atoms: _443  and  _444
REMARK  186  A    between atoms: _443  and  _446
REMARK  187  A    between atoms: _446  and  _447
REMARK  188  A    between atoms: _450  and  _452
REMARK  189  A    between atoms: _452  and  _453
REMARK  190  A    between atoms: _452  and  _455
REMARK  191  A    between atoms: _455  and  _456
REMARK  192  A    between atoms: _460  and  _461
REMARK  193  A    between atoms: _466  and  _468
REMARK  194  A    between atoms: _468  and  _469
REMARK  195  A    between atoms: _468  and  _471
REMARK  196  A    between atoms: _474  and  _476
REMARK  197  A    between atoms: _476  and  _477
REMARK  198  A    between atoms: _476  and  _479
REMARK  199  A    between atoms: _479  and  _480
REMARK  200  A    between atoms: _485  and  _487
REMARK  201  A    between atoms: _487  and  _488
REMARK  202  A    between atoms: _487  and  _490
REMARK  203  A    between atoms: _490  and  _491
REMARK  204  A    between atoms: _494  and  _496
REMARK  205  A    between atoms: _496  and  _497
REMARK  206  A    between atoms: _496  and  _499
REMARK  207  A    between atoms: _499  and  _500
REMARK  208  A    between atoms: _503  and  _505
REMARK  209  A    between atoms: _505  and  _506
REMARK  210  A    between atoms: _508  and  _510
REMARK  211  A    between atoms: _510  and  _511
REMARK  212  A    between atoms: _510  and  _513
REMARK  213  A    between atoms: _513  and  _514
REMARK  214  A    between atoms: _514  and  _515
REMARK  215  A    between atoms: _515  and  _516
REMARK                            x       y       z     vdW  Elec       q    Type
REMARK                         _______ _______ _______ _____ _____    ______ ____
ROOT
ATOM      1  O   HOH     1       8.731 -10.215  20.694  0.00  0.00    +0.000 OA
ENDROOT
TORSDOF 0
REMARK  Name = ../refined-set-2016/1b6k/1b6k_pocket.pdb
REMARK  215 active torsions:
REMARK  status: ('A' for Active; 'I' for Inactive)
REMARK    1  A    between atoms: _1  and  _3
REMARK    2  A    between atoms: _3  and  _4
REMARK    3  A    between atoms: _3  and  _6
REMARK    4  A    between atoms: _6  and  _7
REMARK    5  A    between atoms: _7  and  _8
REMARK    6  A    between atoms: _8  and  _9
REMARK    7  A    between atoms: _18  and  _20
REMARK    8  A    between atoms: _20  and  _21
REMARK    9  A    between atoms: _20  and  _23
REMARK   10  A    between atoms: _23  and  _24
REMARK   11  A    between atoms: _27  and  _29
REMARK   12  A    between atoms: _29  and  _30
REMARK   13  A    between atoms: _29  and  _32
REMARK   14  A    between atoms: _32  and  _33
REMARK   15  A    between atoms: _36  and  _38
REMARK   16  A    between atoms: _38  and  _39
REMARK   17  A    between atoms: _38  and  _41
REMARK   18  A    between atoms: _41  and  _42
REMARK   19  A    between atoms: _45  and  _47
REMARK   20  A    between atoms: _47  and  _48
REMARK   21  A    between atoms: _47  and  _50
REMARK   22  A    between atoms: _50  and  _51
REMARK   23  A    between atoms: _54  and  _56
REMARK   24  A    between atoms: _56  and  _57
REMARK   25  A    between atoms: _59  and  _61
REMARK   26  A    between atoms: _61  and  _62
REMARK   27  A    between atoms: _65  and  _67
REMARK   28  A    between atoms: _67  and  _68
REMARK   29  A    between atoms: _67  and  _70
REMARK   30  A    between atoms: _70  and  _71
REMARK   31  A    between atoms: _74  and  _76
REMARK   32  A    between atoms: _76  and  _77
REMARK   33  A    between atoms: _76  and  _79
REMARK   34  A    between atoms: _79  and  _80
REMARK   35  A    between atoms: _83  and  _85
REMARK   36  A    between atoms: _85  and  _86
REMARK   37  A    between atoms: _85  and  _88
REMARK   38  A    between atoms: _88  and  _89
REMARK   39  A    between atoms: _92  and  _94
REMARK   40  A    between atoms: _94  and  _95
REMARK   41  A    between atoms: _94  and  _97
REMARK   42  A    between atoms: _100  and  _102
REMARK   43  A    between atoms: _102  and  _103
REMARK   44  A    between atoms: _102  and  _105
REMARK   45  A    between atoms: _105  and  _106
REMARK   46  A    between atoms: _106  and  _107
REMARK   47  A    between atoms: _109  and  _111
REMARK   48  A    between atoms: _111  and  _112
REMARK   49  A    between atoms: _111  and  _114
REMARK   50  A    between atoms: _114  and  _115
REMARK   51  A    between atoms: _118  and  _120
REMARK   52  A    between atoms: _120  and  _121
REMARK   53  A    between atoms: _123  and  _125
REMARK   54  A    between atoms: _125  and  _126
REMARK   55  A    between atoms: _128  and  _130
REMARK   56  A    between atoms: _130  and  _131
REMARK   57  A    between atoms: _130  and  _133
REMARK   58  A    between atoms: _133  and  _134
REMARK   59  A    between atoms: _137  and  _139
REMARK   60  A    between atoms: _139  and  _140
REMARK   61  A    between atoms: _142  and  _144
REMARK   62  A    between atoms: _144  and  _145
REMARK   63  A    between atoms: _147  and  _149
REMARK   64  A    between atoms: _149  and  _150
REMARK   65  A    between atoms: _149  and  _152
REMARK   66  A    between atoms: _152  and  _153
REMARK   67  A    between atoms: _159  and  _161
REMARK   68  A    between atoms: _161  and  _162
REMARK   69  A    between atoms: _161  and  _164
REMARK   70  A    between atoms: _164  and  _165
REMARK   71  A    between atoms: _168  and  _170
REMARK   72  A    between atoms: _170  and  _171
REMARK   73  A    between atoms: _170  and  _173
REMARK   74  A    between atoms: _173  and  _174
REMARK   75  A    between atoms: _177  and  _179
REMARK   76  A    between atoms: _179  and  _180
REMARK   77  A    between atoms: _179  and  _182
REMARK   78  A    between atoms: _182  and  _183
REMARK   79  A    between atoms: _187  and  _188
REMARK   80  A    between atoms: _193  and  _195
REMARK   81  A    between atoms: _195  and  _196
REMARK   82  A    between atoms: _195  and  _198
REMARK   83  A    between atoms: _201  and  _203
REMARK   84  A    between atoms: _203  and  _204
REMARK   85  A    between atoms: _203  and  _206
REMARK   86  A    between atoms: _206  and  _207
REMARK   87  A    between atoms: _212  and  _214
REMARK   88  A    between atoms: _214  and  _215
REMARK   89  A    between atoms: _214  and  _217
REMARK   90  A    between atoms: _217  and  _218
REMARK   91  A    between atoms: _221  and  _223
REMARK   92  A    between atoms: _223  and  _224
REMARK   93  A    between atoms: _223  and  _226
REMARK   94  A    between atoms: _226  and  _227
REMARK   95  A    between atoms: _230  and  _232
REMARK   96  A    between atoms: _232  and  _233
REMARK   97  A    between atoms: _235  and  _237
REMARK   98  A    between atoms: _237  and  _238
REMARK   99  A    between atoms: _237  and  _240
REMARK  100  A    between atoms: _240  and  _241
REMARK  101  A    between atoms: _241  and  _242
REMARK  102  A    between atoms: _242  and  _243
REMARK  103  A    between atoms: _252  and  _254
REMARK  104  A    between atoms: _254  and  _255
REMARK  105  A    between atoms: _254  and  _257
REMARK  106  A    between atoms: _257  and  _258
REMARK  107  A    between atoms: _258  and  _259
REMARK  108  A    between atoms: _259  and  _260
REMARK  109  A    between atoms: _269  and  _271
REMARK  110  A    between atoms: _271  and  _272
REMARK  111  A    between atoms: _271  and  _274
REMARK  112  A    between atoms: _274  and  _275
REMARK  113  A    between atoms: _278  and  _280
REMARK  114  A    between atoms: _280  and  _281
REMARK  115  A    between atoms: _280  and  _283
REMARK  116  A    between atoms: _283  and  _284
REMARK  117  A    between atoms: _287  and  _289
REMARK  118  A    between atoms: _289  and  _290
REMARK  119  A    between atoms: _289  and  _292
REMARK  120  A    between atoms: _292  and  _293
REMARK  121  A    between atoms: _296  and  _298
REMARK  122  A    between atoms: _298  and  _299
REMARK  123  A    between atoms: _298  and  _301
REMARK  124  A    between atoms: _301  and  _302
REMARK  125  A    between atoms: _305  and  _307
REMARK  126  A    between atoms: _307  and  _308
REMARK  127  A    between atoms: _307  and  _310
REMARK  128  A    between atoms: _310  and  _311
REMARK  129  A    between atoms: _314  and  _316
REMARK  130  A    between atoms: _316  and  _317
REMARK  131  A    between atoms: _319  and  _321
REMARK  132  A    between atoms: _321  and  _322
REMARK  133  A    between atoms: _325  and  _327
REMARK  134  A    between atoms: _327  and  _328
REMARK  135  A    between atoms: _327  and  _330
REMARK  136  A    between atoms: _330  and  _331
REMARK  137  A    between atoms: _334  and  _336
REMARK  138  A    between atoms: _336  and  _337
REMARK  139  A    between atoms: _336  and  _339
REMARK  140  A    between atoms: _339  and  _340
REMARK  141  A    between atoms: _343  and  _345
REMARK  142  A    between atoms: _345  and  _346
REMARK  143  A    between atoms: _345  and  _348
REMARK  144  A    between atoms: _348  and  _349
REMARK  145  A    between atoms: _352  and  _354
REMARK  146  A    between atoms: _354  and  _355
REMARK  147  A    between atoms: _354  and  _357
REMARK  148  A    between atoms: _360  and  _362
REMARK  149  A    between atoms: _362  and  _363
REMARK  150  A    between atoms: _362  and  _365
REMARK  151  A    between atoms: _365  and  _366
REMARK  152  A    between atoms: _366  and  _367
REMARK  153  A    between atoms: _367  and  _368
REMARK  154  A    between atoms: _368  and  _369
REMARK  155  A    between atoms: _373  and  _375
REMARK  156  A    between atoms: _375  and  _376
REMARK  157  A    between atoms: _375  and  _378
REMARK  158  A    between atoms: _378  and  _379
REMARK  159  A    between atoms: _379  and  _380
REMARK  160  A    between atoms: _382  and  _384
REMARK  161  A    between atoms: _384  and  _385
REMARK  162  A    between atoms: _384  and  _387
REMARK  163  A    between atoms: _387  and  _388
REMARK  164  A    between atoms: _391  and  _393
REMARK  165  A    between atoms: _393  and  _394
REMARK  166  A    between atoms: _396  and  _398
REMARK  167  A    between atoms: _398  and  _399
REMARK  168  A    between atoms: _401  and  _403
REMARK  169  A    between atoms: _403  and  _404
REMARK  170  A    between atoms: _403  and  _406
REMARK  171  A    between atoms: _406  and  _407
REMARK  172  A    between atoms: _410  and  _412
REMARK  173  A    between atoms: _412  and  _413
REMARK  174  A    between atoms: _415  and  _417
REMARK  175  A    between atoms: _417  and  _418
REMARK  176  A    between atoms: _420  and  _422
REMARK  177  A    between atoms: _422  and  _423
REMARK  178  A    between atoms: _422  and  _425
REMARK  179  A    between atoms: _425  and  _426
REMARK  180  A    between atoms: _432  and  _434
REMARK  181  A    between atoms: _434  and  _435
REMARK  182  A    between atoms: _434  and  _437
REMARK  183  A    between atoms: _437  and  _438
REMARK  184  A    between atoms: _441  and  _443
REMARK  185  A    between atoms: _443  and  _444
REMARK  186  A    between atoms: _443  and  _446
REMARK  187  A    between atoms: _446  and  _447
REMARK  188  A    between atoms: _450  and  _452
REMARK  189  A    between atoms: _452  and  _453
REMARK  190  A    between atoms: _452  and  _455
REMARK  191  A    between atoms: _455  and  _456
REMARK  192  A    between atoms: _460  and  _461
REMARK  193  A    between atoms: _466  and  _468
REMARK  194  A    between atoms: _468  and  _469
REMARK  195  A    between atoms: _468  and  _471
REMARK  196  A    between atoms: _474  and  _476
REMARK  197  A    between atoms: _476  and  _477
REMARK  198  A    between atoms: _476  and  _479
REMARK  199  A    between atoms: _479  and  _480
REMARK  200  A    between atoms: _485  and  _487
REMARK  201  A    between atoms: _487  and  _488
REMARK  202  A    between atoms: _487  and  _490
REMARK  203  A    between atoms: _490  and  _491
REMARK  204  A    between atoms: _494  and  _496
REMARK  205  A    between atoms: _496  and  _497
REMARK  206  A    between atoms: _496  and  _499
REMARK  207  A    between atoms: _499  and  _500
REMARK  208  A    between atoms: _503  and  _505
REMARK  209  A    between atoms: _505  and  _506
REMARK  210  A    between atoms: _508  and  _510
REMARK  211  A    between atoms: _510  and  _511
REMARK  212  A    between atoms: _510  and  _513
REMARK  213  A    between atoms: _513  and  _514
REMARK  214  A    between atoms: _514  and  _515
REMARK  215  A    between atoms: _515  and  _516
REMARK                            x       y       z     vdW  Elec       q    Type
REMARK                         _______ _______ _______ _____ _____    ______ ____
ROOT
ATOM      1  O   HOH     1       8.570 -10.797  16.669  0.00  0.00    +0.000 OA
ENDROOT
TORSDOF 0
REMARK  Name = ../refined-set-2016/1b6k/1b6k_pocket.pdb
REMARK  215 active torsions:
REMARK  status: ('A' for Active; 'I' for Inactive)
REMARK    1  A    between atoms: _1  and  _3
REMARK    2  A    between atoms: _3  and  _4
REMARK    3  A    between atoms: _3  and  _6
REMARK    4  A    between atoms: _6  and  _7
REMARK    5  A    between atoms: _7  and  _8
REMARK    6  A    between atoms: _8  and  _9
REMARK    7  A    between atoms: _18  and  _20
REMARK    8  A    between atoms: _20  and  _21
REMARK    9  A    between atoms: _20  and  _23
REMARK   10  A    between atoms: _23  and  _24
REMARK   11  A    between atoms: _27  and  _29
REMARK   12  A    between atoms: _29  and  _30
REMARK   13  A    between atoms: _29  and  _32
REMARK   14  A    between atoms: _32  and  _33
REMARK   15  A    between atoms: _36  and  _38
REMARK   16  A    between atoms: _38  and  _39
REMARK   17  A    between atoms: _38  and  _41
REMARK   18  A    between atoms: _41  and  _42
REMARK   19  A    between atoms: _45  and  _47
REMARK   20  A    between atoms: _47  and  _48
REMARK   21  A    between atoms: _47  and  _50
REMARK   22  A    between atoms: _50  and  _51
REMARK   23  A    between atoms: _54  and  _56
REMARK   24  A    between atoms: _56  and  _57
REMARK   25  A    between atoms: _59  and  _61
REMARK   26  A    between atoms: _61  and  _62
REMARK   27  A    between atoms: _65  and  _67
REMARK   28  A    between atoms: _67  and  _68
REMARK   29  A    between atoms: _67  and  _70
REMARK   30  A    between atoms: _70  and  _71
REMARK   31  A    between atoms: _74  and  _76
REMARK   32  A    between atoms: _76  and  _77
REMARK   33  A    between atoms: _76  and  _79
REMARK   34  A    between atoms: _79  and  _80
REMARK   35  A    between atoms: _83  and  _85
REMARK   36  A    between atoms: _85  and  _86
REMARK   37  A    between atoms: _85  and  _88
REMARK   38  A    between atoms: _88  and  _89
REMARK   39  A    between atoms: _92  and  _94
REMARK   40  A    between atoms: _94  and  _95
REMARK   41  A    between atoms: _94  and  _97
REMARK   42  A    between atoms: _100  and  _102
REMARK   43  A    between atoms: _102  and  _103
REMARK   44  A    between atoms: _102  and  _105
REMARK   45  A    between atoms: _105  and  _106
REMARK   46  A    between atoms: _106  and  _107
REMARK   47  A    between atoms: _109  and  _111
REMARK   48  A    between atoms: _111  and  _112
REMARK   49  A    between atoms: _111  and  _114
REMARK   50  A    between atoms: _114  and  _115
REMARK   51  A    between atoms: _118  and  _120
REMARK   52  A    between atoms: _120  and  _121
REMARK   53  A    between atoms: _123  and  _125
REMARK   54  A    between atoms: _125  and  _126
REMARK   55  A    between atoms: _128  and  _130
REMARK   56  A    between atoms: _130  and  _131
REMARK   57  A    between atoms: _130  and  _133
REMARK   58  A    between atoms: _133  and  _134
REMARK   59  A    between atoms: _137  and  _139
REMARK   60  A    between atoms: _139  and  _140
REMARK   61  A    between atoms: _142  and  _144
REMARK   62  A    between atoms: _144  and  _145
REMARK   63  A    between atoms: _147  and  _149
REMARK   64  A    between atoms: _149  and  _150
REMARK   65  A    between atoms: _149  and  _152
REMARK   66  A    between atoms: _152  and  _153
REMARK   67  A    between atoms: _159  and  _161
REMARK   68  A    between atoms: _161  and  _162
REMARK   69  A    between atoms: _161  and  _164
REMARK   70  A    between atoms: _164  and  _165
REMARK   71  A    between atoms: _168  and  _170
REMARK   72  A    between atoms: _170  and  _171
REMARK   73  A    between atoms: _170  and  _173
REMARK   74  A    between atoms: _173  and  _174
REMARK   75  A    between atoms: _177  and  _179
REMARK   76  A    between atoms: _179  and  _180
REMARK   77  A    between atoms: _179  and  _182
REMARK   78  A    between atoms: _182  and  _183
REMARK   79  A    between atoms: _187  and  _188
REMARK   80  A    between atoms: _193  and  _195
REMARK   81  A    between atoms: _195  and  _196
REMARK   82  A    between atoms: _195  and  _198
REMARK   83  A    between atoms: _201  and  _203
REMARK   84  A    between atoms: _203  and  _204
REMARK   85  A    between atoms: _203  and  _206
REMARK   86  A    between atoms: _206  and  _207
REMARK   87  A    between atoms: _212  and  _214
REMARK   88  A    between atoms: _214  and  _215
REMARK   89  A    between atoms: _214  and  _217
REMARK   90  A    between atoms: _217  and  _218
REMARK   91  A    between atoms: _221  and  _223
REMARK   92  A    between atoms: _223  and  _224
REMARK   93  A    between atoms: _223  and  _226
REMARK   94  A    between atoms: _226  and  _227
REMARK   95  A    between atoms: _230  and  _232
REMARK   96  A    between atoms: _232  and  _233
REMARK   97  A    between atoms: _235  and  _237
REMARK   98  A    between atoms: _237  and  _238
REMARK   99  A    between atoms: _237  and  _240
REMARK  100  A    between atoms: _240  and  _241
REMARK  101  A    between atoms: _241  and  _242
REMARK  102  A    between atoms: _242  and  _243
REMARK  103  A    between atoms: _252  and  _254
REMARK  104  A    between atoms: _254  and  _255
REMARK  105  A    between atoms: _254  and  _257
REMARK  106  A    between atoms: _257  and  _258
REMARK  107  A    between atoms: _258  and  _259
REMARK  108  A    between atoms: _259  and  _260
REMARK  109  A    between atoms: _269  and  _271
REMARK  110  A    between atoms: _271  and  _272
REMARK  111  A    between atoms: _271  and  _274
REMARK  112  A    between atoms: _274  and  _275
REMARK  113  A    between atoms: _278  and  _280
REMARK  114  A    between atoms: _280  and  _281
REMARK  115  A    between atoms: _280  and  _283
REMARK  116  A    between atoms: _283  and  _284
REMARK  117  A    between atoms: _287  and  _289
REMARK  118  A    between atoms: _289  and  _290
REMARK  119  A    between atoms: _289  and  _292
REMARK  120  A    between atoms: _292  and  _293
REMARK  121  A    between atoms: _296  and  _298
REMARK  122  A    between atoms: _298  and  _299
REMARK  123  A    between atoms: _298  and  _301
REMARK  124  A    between atoms: _301  and  _302
REMARK  125  A    between atoms: _305  and  _307
REMARK  126  A    between atoms: _307  and  _308
REMARK  127  A    between atoms: _307  and  _310
REMARK  128  A    between atoms: _310  and  _311
REMARK  129  A    between atoms: _314  and  _316
REMARK  130  A    between atoms: _316  and  _317
REMARK  131  A    between atoms: _319  and  _321
REMARK  132  A    between atoms: _321  and  _322
REMARK  133  A    between atoms: _325  and  _327
REMARK  134  A    between atoms: _327  and  _328
REMARK  135  A    between atoms: _327  and  _330
REMARK  136  A    between atoms: _330  and  _331
REMARK  137  A    between atoms: _334  and  _336
REMARK  138  A    between atoms: _336  and  _337
REMARK  139  A    between atoms: _336  and  _339
REMARK  140  A    between atoms: _339  and  _340
REMARK  141  A    between atoms: _343  and  _345
REMARK  142  A    between atoms: _345  and  _346
REMARK  143  A    between atoms: _345  and  _348
REMARK  144  A    between atoms: _348  and  _349
REMARK  145  A    between atoms: _352  and  _354
REMARK  146  A    between atoms: _354  and  _355
REMARK  147  A    between atoms: _354  and  _357
REMARK  148  A    between atoms: _360  and  _362
REMARK  149  A    between atoms: _362  and  _363
REMARK  150  A    between atoms: _362  and  _365
REMARK  151  A    between atoms: _365  and  _366
REMARK  152  A    between atoms: _366  and  _367
REMARK  153  A    between atoms: _367  and  _368
REMARK  154  A    between atoms: _368  and  _369
REMARK  155  A    between atoms: _373  and  _375
REMARK  156  A    between atoms: _375  and  _376
REMARK  157  A    between atoms: _375  and  _378
REMARK  158  A    between atoms: _378  and  _379
REMARK  159  A    between atoms: _379  and  _380
REMARK  160  A    between atoms: _382  and  _384
REMARK  161  A    between atoms: _384  and  _385
REMARK  162  A    between atoms: _384  and  _387
REMARK  163  A    between atoms: _387  and  _388
REMARK  164  A    between atoms: _391  and  _393
REMARK  165  A    between atoms: _393  and  _394
REMARK  166  A    between atoms: _396  and  _398
REMARK  167  A    between atoms: _398  and  _399
REMARK  168  A    between atoms: _401  and  _403
REMARK  169  A    between atoms: _403  and  _404
REMARK  170  A    between atoms: _403  and  _406
REMARK  171  A    between atoms: _406  and  _407
REMARK  172  A    between atoms: _410  and  _412
REMARK  173  A    between atoms: _412  and  _413
REMARK  174  A    between atoms: _415  and  _417
REMARK  175  A    between atoms: _417  and  _418
REMARK  176  A    between atoms: _420  and  _422
REMARK  177  A    between atoms: _422  and  _423
REMARK  178  A    between atoms: _422  and  _425
REMARK  179  A    between atoms: _425  and  _426
REMARK  180  A    between atoms: _432  and  _434
REMARK  181  A    between atoms: _434  and  _435
REMARK  182  A    between atoms: _434  and  _437
REMARK  183  A    between atoms: _437  and  _438
REMARK  184  A    between atoms: _441  and  _443
REMARK  185  A    between atoms: _443  and  _444
REMARK  186  A    between atoms: _443  and  _446
REMARK  187  A    between atoms: _446  and  _447
REMARK  188  A    between atoms: _450  and  _452
REMARK  189  A    between atoms: _452  and  _453
REMARK  190  A    between atoms: _452  and  _455
REMARK  191  A    between atoms: _455  and  _456
REMARK  192  A    between atoms: _460  and  _461
REMARK  193  A    between atoms: _466  and  _468
REMARK  194  A    between atoms: _468  and  _469
REMARK  195  A    between atoms: _468  and  _471
REMARK  196  A    between atoms: _474  and  _476
REMARK  197  A    between atoms: _476  and  _477
REMARK  198  A    between atoms: _476  and  _479
REMARK  199  A    between atoms: _479  and  _480
REMARK  200  A    between atoms: _485  and  _487
REMARK  201  A    between atoms: _487  and  _488
REMARK  202  A    between atoms: _487  and  _490
REMARK  203  A    between atoms: _490  and  _491
REMARK  204  A    between atoms: _494  and  _496
REMARK  205  A    between atoms: _496  and  _497
REMARK  206  A    between atoms: _496  and  _499
REMARK  207  A    between atoms: _499  and  _500
REMARK  208  A    between atoms: _503  and  _505
REMARK  209  A    between atoms: _505  and  _506
REMARK  210  A    between atoms: _508  and  _510
REMARK  211  A    between atoms: _510  and  _511
REMARK  212  A    between atoms: _510  and  _513
REMARK  213  A    between atoms: _513  and  _514
REMARK  214  A    between atoms: _514  and  _515
REMARK  215  A    between atoms: _515  and  _516
REMARK                            x       y       z     vdW  Elec       q    Type
REMARK                         _______ _______ _______ _____ _____    ______ ____
ROOT
ATOM      1  O   HOH     1      13.667   8.652  11.136  0.00  0.00    +0.000 OA
ENDROOT
TORSDOF 0
