REMARK  Name = ../refined-set-2016/4o04/4o04_pocket.pdb
REMARK  240 active torsions:
REMARK  status: ('A' for Active; 'I' for Inactive)
REMARK    1  A    between atoms: _1  and  _3
REMARK    2  A    between atoms: _3  and  _4
REMARK    3  A    between atoms: _3  and  _6
REMARK    4  A    between atoms: _6  and  _7
REMARK    5  A    between atoms: _13  and  _15
REMARK    6  A    between atoms: _15  and  _16
REMARK    7  A    between atoms: _15  and  _18
REMARK    8  A    between atoms: _18  and  _19
REMARK    9  A    between atoms: _22  and  _24
REMARK   10  A    between atoms: _24  and  _25
REMARK   11  A    between atoms: _24  and  _27
REMARK   12  A    between atoms: _27  and  _28
REMARK   13  A    between atoms: _31  and  _33
REMARK   14  A    between atoms: _33  and  _34
REMARK   15  A    between atoms: _33  and  _36
REMARK   16  A    between atoms: _36  and  _37
REMARK   17  A    between atoms: _37  and  _38
REMARK   18  A    between atoms: _41  and  _43
REMARK   19  A    between atoms: _43  and  _44
REMARK   20  A    between atoms: _43  and  _46
REMARK   21  A    between atoms: _46  and  _47
REMARK   22  A    between atoms: _50  and  _52
REMARK   23  A    between atoms: _52  and  _53
REMARK   24  A    between atoms: _52  and  _55
REMARK   25  A    between atoms: _55  and  _56
REMARK   26  A    between atoms: _59  and  _61
REMARK   27  A    between atoms: _61  and  _62
REMARK   28  A    between atoms: _61  and  _64
REMARK   29  A    between atoms: _64  and  _65
REMARK   30  A    between atoms: _67  and  _69
REMARK   31  A    between atoms: _69  and  _70
REMARK   32  A    between atoms: _69  and  _72
REMARK   33  A    between atoms: _72  and  _73
REMARK   34  A    between atoms: _78  and  _80
REMARK   35  A    between atoms: _80  and  _81
REMARK   36  A    between atoms: _80  and  _83
REMARK   37  A    between atoms: _83  and  _84
REMARK   38  A    between atoms: _86  and  _88
REMARK   39  A    between atoms: _88  and  _89
REMARK   40  A    between atoms: _88  and  _91
REMARK   41  A    between atoms: _91  and  _92
REMARK   42  A    between atoms: _94  and  _96
REMARK   43  A    between atoms: _96  and  _97
REMARK   44  A    between atoms: _96  and  _99
REMARK   45  A    between atoms: _99  and  _100
REMARK   46  A    between atoms: _103  and  _105
REMARK   47  A    between atoms: _105  and  _106
REMARK   48  A    between atoms: _109  and  _111
REMARK   49  A    between atoms: _111  and  _112
REMARK   50  A    between atoms: _111  and  _114
REMARK   51  A    between atoms: _114  and  _115
REMARK   52  A    between atoms: _118  and  _120
REMARK   53  A    between atoms: _120  and  _121
REMARK   54  A    between atoms: _120  and  _123
REMARK   55  A    between atoms: _123  and  _124
REMARK   56  A    between atoms: _124  and  _125
REMARK   57  A    between atoms: _125  and  _126
REMARK   58  A    between atoms: _126  and  _127
REMARK   59  A    between atoms: _131  and  _133
REMARK   60  A    between atoms: _133  and  _134
REMARK   61  A    between atoms: _133  and  _136
REMARK   62  A    between atoms: _136  and  _137
REMARK   63  A    between atoms: _140  and  _142
REMARK   64  A    between atoms: _142  and  _143
REMARK   65  A    between atoms: _142  and  _145
REMARK   66  A    between atoms: _148  and  _150
REMARK   67  A    between atoms: _150  and  _151
REMARK   68  A    between atoms: _150  and  _153
REMARK   69  A    between atoms: _153  and  _154
REMARK   70  A    between atoms: _157  and  _159
REMARK   71  A    between atoms: _159  and  _160
REMARK   72  A    between atoms: _159  and  _162
REMARK   73  A    between atoms: _162  and  _163
REMARK   74  A    between atoms: _166  and  _168
REMARK   75  A    between atoms: _168  and  _169
REMARK   76  A    between atoms: _171  and  _173
REMARK   77  A    between atoms: _173  and  _174
REMARK   78  A    between atoms: _173  and  _176
REMARK   79  A    between atoms: _176  and  _177
REMARK   80  A    between atoms: _180  and  _182
REMARK   81  A    between atoms: _182  and  _183
REMARK   82  A    between atoms: _185  and  _187
REMARK   83  A    between atoms: _187  and  _188
REMARK   84  A    between atoms: _187  and  _190
REMARK   85  A    between atoms: _190  and  _191
REMARK   86  A    between atoms: _191  and  _192
REMARK   87  A    between atoms: _194  and  _196
REMARK   88  A    between atoms: _196  and  _197
REMARK   89  A    between atoms: _196  and  _199
REMARK   90  A    between atoms: _199  and  _200
REMARK   91  A    between atoms: _203  and  _205
REMARK   92  A    between atoms: _205  and  _206
REMARK   93  A    between atoms: _205  and  _208
REMARK   94  A    between atoms: _208  and  _209
REMARK   95  A    between atoms: _209  and  _210
REMARK   96  A    between atoms: _210  and  _211
REMARK   97  A    between atoms: _211  and  _212
REMARK   98  A    between atoms: _216  and  _218
REMARK   99  A    between atoms: _218  and  _219
REMARK  100  A    between atoms: _222  and  _224
REMARK  101  A    between atoms: _224  and  _225
REMARK  102  A    between atoms: _224  and  _227
REMARK  103  A    between atoms: _227  and  _228
REMARK  104  A    between atoms: _231  and  _233
REMARK  105  A    between atoms: _233  and  _234
REMARK  106  A    between atoms: _233  and  _236
REMARK  107  A    between atoms: _236  and  _237
REMARK  108  A    between atoms: _240  and  _242
REMARK  109  A    between atoms: _242  and  _243
REMARK  110  A    between atoms: _242  and  _245
REMARK  111  A    between atoms: _245  and  _246
REMARK  112  A    between atoms: _249  and  _251
REMARK  113  A    between atoms: _251  and  _252
REMARK  114  A    between atoms: _251  and  _254
REMARK  115  A    between atoms: _254  and  _255
REMARK  116  A    between atoms: _260  and  _262
REMARK  117  A    between atoms: _262  and  _263
REMARK  118  A    between atoms: _262  and  _265
REMARK  119  A    between atoms: _265  and  _266
REMARK  120  A    between atoms: _271  and  _273
REMARK  121  A    between atoms: _273  and  _274
REMARK  122  A    between atoms: _273  and  _276
REMARK  123  A    between atoms: _276  and  _277
REMARK  124  A    between atoms: _280  and  _282
REMARK  125  A    between atoms: _282  and  _283
REMARK  126  A    between atoms: _285  and  _287
REMARK  127  A    between atoms: _287  and  _288
REMARK  128  A    between atoms: _287  and  _290
REMARK  129  A    between atoms: _290  and  _291
REMARK  130  A    between atoms: _294  and  _296
REMARK  131  A    between atoms: _296  and  _297
REMARK  132  A    between atoms: _296  and  _299
REMARK  133  A    between atoms: _299  and  _300
REMARK  134  A    between atoms: _303  and  _305
REMARK  135  A    between atoms: _305  and  _306
REMARK  136  A    between atoms: _309  and  _311
REMARK  137  A    between atoms: _311  and  _312
REMARK  138  A    between atoms: _311  and  _314
REMARK  139  A    between atoms: _314  and  _315
REMARK  140  A    between atoms: _315  and  _316
REMARK  141  A    between atoms: _316  and  _317
REMARK  142  A    between atoms: _317  and  _318
REMARK  143  A    between atoms: _322  and  _324
REMARK  144  A    between atoms: _324  and  _325
REMARK  145  A    between atoms: _327  and  _329
REMARK  146  A    between atoms: _329  and  _330
REMARK  147  A    between atoms: _329  and  _332
REMARK  148  A    between atoms: _332  and  _333
REMARK  149  A    between atoms: _336  and  _338
REMARK  150  A    between atoms: _338  and  _339
REMARK  151  A    between atoms: _341  and  _343
REMARK  152  A    between atoms: _343  and  _344
REMARK  153  A    between atoms: _343  and  _346
REMARK  154  A    between atoms: _346  and  _347
REMARK  155  A    between atoms: _353  and  _355
REMARK  156  A    between atoms: _355  and  _356
REMARK  157  A    between atoms: _358  and  _360
REMARK  158  A    between atoms: _360  and  _361
REMARK  159  A    between atoms: _360  and  _363
REMARK  160  A    between atoms: _366  and  _368
REMARK  161  A    between atoms: _368  and  _369
REMARK  162  A    between atoms: _371  and  _373
REMARK  163  A    between atoms: _373  and  _374
REMARK  164  A    between atoms: _373  and  _376
REMARK  165  A    between atoms: _376  and  _377
REMARK  166  A    between atoms: _383  and  _385
REMARK  167  A    between atoms: _385  and  _386
REMARK  168  A    between atoms: _385  and  _388
REMARK  169  A    between atoms: _388  and  _389
REMARK  170  A    between atoms: _394  and  _395
REMARK  171  A    between atoms: _397  and  _399
REMARK  172  A    between atoms: _399  and  _400
REMARK  173  A    between atoms: _399  and  _402
REMARK  174  A    between atoms: _402  and  _403
REMARK  175  A    between atoms: _408  and  _409
REMARK  176  A    between atoms: _411  and  _413
REMARK  177  A    between atoms: _413  and  _414
REMARK  178  A    between atoms: _413  and  _416
REMARK  179  A    between atoms: _419  and  _421
REMARK  180  A    between atoms: _421  and  _422
REMARK  181  A    between atoms: _421  and  _424
REMARK  182  A    between atoms: _424  and  _425
REMARK  183  A    between atoms: _428  and  _430
REMARK  184  A    between atoms: _430  and  _431
REMARK  185  A    between atoms: _430  and  _433
REMARK  186  A    between atoms: _436  and  _438
REMARK  187  A    between atoms: _438  and  _439
REMARK  188  A    between atoms: _438  and  _441
REMARK  189  A    between atoms: _441  and  _442
REMARK  190  A    between atoms: _445  and  _447
REMARK  191  A    between atoms: _447  and  _448
REMARK  192  A    between atoms: _447  and  _450
REMARK  193  A    between atoms: _450  and  _451
REMARK  194  A    between atoms: _454  and  _456
REMARK  195  A    between atoms: _456  and  _457
REMARK  196  A    between atoms: _456  and  _459
REMARK  197  A    between atoms: _459  and  _460
REMARK  198  A    between atoms: _460  and  _461
REMARK  199  A    between atoms: _461  and  _462
REMARK  200  A    between atoms: _462  and  _463
REMARK  201  A    between atoms: _467  and  _469
REMARK  202  A    between atoms: _469  and  _470
REMARK  203  A    between atoms: _469  and  _472
REMARK  204  A    between atoms: _472  and  _473
REMARK  205  A    between atoms: _483  and  _485
REMARK  206  A    between atoms: _485  and  _486
REMARK  207  A    between atoms: _485  and  _488
REMARK  208  A    between atoms: _488  and  _489
REMARK  209  A    between atoms: _489  and  _490
REMARK  210  A    between atoms: _493  and  _495
REMARK  211  A    between atoms: _495  and  _496
REMARK  212  A    between atoms: _495  and  _498
REMARK  213  A    between atoms: _498  and  _499
REMARK  214  A    between atoms: _501  and  _503
REMARK  215  A    between atoms: _503  and  _504
REMARK  216  A    between atoms: _503  and  _506
REMARK  217  A    between atoms: _506  and  _507
REMARK  218  A    between atoms: _513  and  _515
REMARK  219  A    between atoms: _515  and  _516
REMARK  220  A    between atoms: _515  and  _518
REMARK  221  A    between atoms: _518  and  _519
REMARK  222  A    between atoms: _522  and  _524
REMARK  223  A    between atoms: _524  and  _525
REMARK  224  A    between atoms: _524  and  _527
REMARK  225  A    between atoms: _530  and  _532
REMARK  226  A    between atoms: _532  and  _533
REMARK  227  A    between atoms: _535  and  _537
REMARK  228  A    between atoms: _537  and  _538
REMARK  229  A    between atoms: _537  and  _540
REMARK  230  A    between atoms: _540  and  _541
REMARK  231  A    between atoms: _544  and  _546
REMARK  232  A    between atoms: _546  and  _547
REMARK  233  A    between atoms: _546  and  _549
REMARK  234  A    between atoms: _549  and  _550
REMARK  235  A    between atoms: _550  and  _551
REMARK  236  A    between atoms: _551  and  _552
REMARK  237  A    between atoms: _552  and  _553
REMARK  238  A    between atoms: _557  and  _559
REMARK  239  A    between atoms: _559  and  _560
REMARK  240  A    between atoms: _559  and  _562
REMARK                            x       y       z     vdW  Elec       q    Type
REMARK                         _______ _______ _______ _____ _____    ______ ____
ROOT
ATOM      1  CB  PHE A   1      15.762 -17.641 -24.008  0.00  0.00    +0.051 C 
ENDROOT
BRANCH   1   2
ATOM      2  CG  PHE A   1      14.347 -18.099 -23.785  0.00  0.00    -0.020 A 
ATOM      3  CD2 PHE A   1      14.087 -19.369 -23.274  0.00  0.00    -0.004 A 
ATOM      4  CE2 PHE A   1      12.749 -19.807 -23.068  0.00  0.00    -0.000 A 
ATOM      5  CZ  PHE A   1      11.686 -18.957 -23.367  0.00  0.00    -0.000 A 
ATOM      6  CE1 PHE A   1      11.941 -17.688 -23.897  0.00  0.00    -0.000 A 
ATOM      7  CD1 PHE A   1      13.270 -17.262 -24.096  0.00  0.00    -0.004 A 
ENDBRANCH   1   2
BRANCH   1   8
ATOM      8  CA  PHE A   1      16.153 -17.477 -25.513  0.00  0.00    +0.137 C 
BRANCH   8   9
ATOM      9  N   PHE A   1      16.582 -18.770 -26.033  0.00  0.00    -0.239 NA
ATOM     10  H   PHE A   1      16.606 -19.600 -25.406  0.00  0.00    +0.142 HD
ENDBRANCH   8   9
BRANCH   8  11
ATOM     11  C   PHE A   1      17.402 -16.567 -25.491  0.00  0.00    +0.224 C 
ATOM     12  O   PHE A   1      18.502 -17.068 -25.340  0.00  0.00    -0.287 OA
ENDBRANCH   8  11
ENDBRANCH   1   8
TORSDOF 4
REMARK  Name = ../refined-set-2016/4o04/4o04_pocket.pdb
REMARK  240 active torsions:
REMARK  status: ('A' for Active; 'I' for Inactive)
REMARK    1  A    between atoms: _1  and  _3
REMARK    2  A    between atoms: _3  and  _4
REMARK    3  A    between atoms: _3  and  _6
REMARK    4  A    between atoms: _6  and  _7
REMARK    5  A    between atoms: _13  and  _15
REMARK    6  A    between atoms: _15  and  _16
REMARK    7  A    between atoms: _15  and  _18
REMARK    8  A    between atoms: _18  and  _19
REMARK    9  A    between atoms: _22  and  _24
REMARK   10  A    between atoms: _24  and  _25
REMARK   11  A    between atoms: _24  and  _27
REMARK   12  A    between atoms: _27  and  _28
REMARK   13  A    between atoms: _31  and  _33
REMARK   14  A    between atoms: _33  and  _34
REMARK   15  A    between atoms: _33  and  _36
REMARK   16  A    between atoms: _36  and  _37
REMARK   17  A    between atoms: _37  and  _38
REMARK   18  A    between atoms: _41  and  _43
REMARK   19  A    between atoms: _43  and  _44
REMARK   20  A    between atoms: _43  and  _46
REMARK   21  A    between atoms: _46  and  _47
REMARK   22  A    between atoms: _50  and  _52
REMARK   23  A    between atoms: _52  and  _53
REMARK   24  A    between atoms: _52  and  _55
REMARK   25  A    between atoms: _55  and  _56
REMARK   26  A    between atoms: _59  and  _61
REMARK   27  A    between atoms: _61  and  _62
REMARK   28  A    between atoms: _61  and  _64
REMARK   29  A    between atoms: _64  and  _65
REMARK   30  A    between atoms: _67  and  _69
REMARK   31  A    between atoms: _69  and  _70
REMARK   32  A    between atoms: _69  and  _72
REMARK   33  A    between atoms: _72  and  _73
REMARK   34  A    between atoms: _78  and  _80
REMARK   35  A    between atoms: _80  and  _81
REMARK   36  A    between atoms: _80  and  _83
REMARK   37  A    between atoms: _83  and  _84
REMARK   38  A    between atoms: _86  and  _88
REMARK   39  A    between atoms: _88  and  _89
REMARK   40  A    between atoms: _88  and  _91
REMARK   41  A    between atoms: _91  and  _92
REMARK   42  A    between atoms: _94  and  _96
REMARK   43  A    between atoms: _96  and  _97
REMARK   44  A    between atoms: _96  and  _99
REMARK   45  A    between atoms: _99  and  _100
REMARK   46  A    between atoms: _103  and  _105
REMARK   47  A    between atoms: _105  and  _106
REMARK   48  A    between atoms: _109  and  _111
REMARK   49  A    between atoms: _111  and  _112
REMARK   50  A    between atoms: _111  and  _114
REMARK   51  A    between atoms: _114  and  _115
REMARK   52  A    between atoms: _118  and  _120
REMARK   53  A    between atoms: _120  and  _121
REMARK   54  A    between atoms: _120  and  _123
REMARK   55  A    between atoms: _123  and  _124
REMARK   56  A    between atoms: _124  and  _125
REMARK   57  A    between atoms: _125  and  _126
REMARK   58  A    between atoms: _126  and  _127
REMARK   59  A    between atoms: _131  and  _133
REMARK   60  A    between atoms: _133  and  _134
REMARK   61  A    between atoms: _133  and  _136
REMARK   62  A    between atoms: _136  and  _137
REMARK   63  A    between atoms: _140  and  _142
REMARK   64  A    between atoms: _142  and  _143
REMARK   65  A    between atoms: _142  and  _145
REMARK   66  A    between atoms: _148  and  _150
REMARK   67  A    between atoms: _150  and  _151
REMARK   68  A    between atoms: _150  and  _153
REMARK   69  A    between atoms: _153  and  _154
REMARK   70  A    between atoms: _157  and  _159
REMARK   71  A    between atoms: _159  and  _160
REMARK   72  A    between atoms: _159  and  _162
REMARK   73  A    between atoms: _162  and  _163
REMARK   74  A    between atoms: _166  and  _168
REMARK   75  A    between atoms: _168  and  _169
REMARK   76  A    between atoms: _171  and  _173
REMARK   77  A    between atoms: _173  and  _174
REMARK   78  A    between atoms: _173  and  _176
REMARK   79  A    between atoms: _176  and  _177
REMARK   80  A    between atoms: _180  and  _182
REMARK   81  A    between atoms: _182  and  _183
REMARK   82  A    between atoms: _185  and  _187
REMARK   83  A    between atoms: _187  and  _188
REMARK   84  A    between atoms: _187  and  _190
REMARK   85  A    between atoms: _190  and  _191
REMARK   86  A    between atoms: _191  and  _192
REMARK   87  A    between atoms: _194  and  _196
REMARK   88  A    between atoms: _196  and  _197
REMARK   89  A    between atoms: _196  and  _199
REMARK   90  A    between atoms: _199  and  _200
REMARK   91  A    between atoms: _203  and  _205
REMARK   92  A    between atoms: _205  and  _206
REMARK   93  A    between atoms: _205  and  _208
REMARK   94  A    between atoms: _208  and  _209
REMARK   95  A    between atoms: _209  and  _210
REMARK   96  A    between atoms: _210  and  _211
REMARK   97  A    between atoms: _211  and  _212
REMARK   98  A    between atoms: _216  and  _218
REMARK   99  A    between atoms: _218  and  _219
REMARK  100  A    between atoms: _222  and  _224
REMARK  101  A    between atoms: _224  and  _225
REMARK  102  A    between atoms: _224  and  _227
REMARK  103  A    between atoms: _227  and  _228
REMARK  104  A    between atoms: _231  and  _233
REMARK  105  A    between atoms: _233  and  _234
REMARK  106  A    between atoms: _233  and  _236
REMARK  107  A    between atoms: _236  and  _237
REMARK  108  A    between atoms: _240  and  _242
REMARK  109  A    between atoms: _242  and  _243
REMARK  110  A    between atoms: _242  and  _245
REMARK  111  A    between atoms: _245  and  _246
REMARK  112  A    between atoms: _249  and  _251
REMARK  113  A    between atoms: _251  and  _252
REMARK  114  A    between atoms: _251  and  _254
REMARK  115  A    between atoms: _254  and  _255
REMARK  116  A    between atoms: _260  and  _262
REMARK  117  A    between atoms: _262  and  _263
REMARK  118  A    between atoms: _262  and  _265
REMARK  119  A    between atoms: _265  and  _266
REMARK  120  A    between atoms: _271  and  _273
REMARK  121  A    between atoms: _273  and  _274
REMARK  122  A    between atoms: _273  and  _276
REMARK  123  A    between atoms: _276  and  _277
REMARK  124  A    between atoms: _280  and  _282
REMARK  125  A    between atoms: _282  and  _283
REMARK  126  A    between atoms: _285  and  _287
REMARK  127  A    between atoms: _287  and  _288
REMARK  128  A    between atoms: _287  and  _290
REMARK  129  A    between atoms: _290  and  _291
REMARK  130  A    between atoms: _294  and  _296
REMARK  131  A    between atoms: _296  and  _297
REMARK  132  A    between atoms: _296  and  _299
REMARK  133  A    between atoms: _299  and  _300
REMARK  134  A    between atoms: _303  and  _305
REMARK  135  A    between atoms: _305  and  _306
REMARK  136  A    between atoms: _309  and  _311
REMARK  137  A    between atoms: _311  and  _312
REMARK  138  A    between atoms: _311  and  _314
REMARK  139  A    between atoms: _314  and  _315
REMARK  140  A    between atoms: _315  and  _316
REMARK  141  A    between atoms: _316  and  _317
REMARK  142  A    between atoms: _317  and  _318
REMARK  143  A    between atoms: _322  and  _324
REMARK  144  A    between atoms: _324  and  _325
REMARK  145  A    between atoms: _327  and  _329
REMARK  146  A    between atoms: _329  and  _330
REMARK  147  A    between atoms: _329  and  _332
REMARK  148  A    between atoms: _332  and  _333
REMARK  149  A    between atoms: _336  and  _338
REMARK  150  A    between atoms: _338  and  _339
REMARK  151  A    between atoms: _341  and  _343
REMARK  152  A    between atoms: _343  and  _344
REMARK  153  A    between atoms: _343  and  _346
REMARK  154  A    between atoms: _346  and  _347
REMARK  155  A    between atoms: _353  and  _355
REMARK  156  A    between atoms: _355  and  _356
REMARK  157  A    between atoms: _358  and  _360
REMARK  158  A    between atoms: _360  and  _361
REMARK  159  A    between atoms: _360  and  _363
REMARK  160  A    between atoms: _366  and  _368
REMARK  161  A    between atoms: _368  and  _369
REMARK  162  A    between atoms: _371  and  _373
REMARK  163  A    between atoms: _373  and  _374
REMARK  164  A    between atoms: _373  and  _376
REMARK  165  A    between atoms: _376  and  _377
REMARK  166  A    between atoms: _383  and  _385
REMARK  167  A    between atoms: _385  and  _386
REMARK  168  A    between atoms: _385  and  _388
REMARK  169  A    between atoms: _388  and  _389
REMARK  170  A    between atoms: _394  and  _395
REMARK  171  A    between atoms: _397  and  _399
REMARK  172  A    between atoms: _399  and  _400
REMARK  173  A    between atoms: _399  and  _402
REMARK  174  A    between atoms: _402  and  _403
REMARK  175  A    between atoms: _408  and  _409
REMARK  176  A    between atoms: _411  and  _413
REMARK  177  A    between atoms: _413  and  _414
REMARK  178  A    between atoms: _413  and  _416
REMARK  179  A    between atoms: _419  and  _421
REMARK  180  A    between atoms: _421  and  _422
REMARK  181  A    between atoms: _421  and  _424
REMARK  182  A    between atoms: _424  and  _425
REMARK  183  A    between atoms: _428  and  _430
REMARK  184  A    between atoms: _430  and  _431
REMARK  185  A    between atoms: _430  and  _433
REMARK  186  A    between atoms: _436  and  _438
REMARK  187  A    between atoms: _438  and  _439
REMARK  188  A    between atoms: _438  and  _441
REMARK  189  A    between atoms: _441  and  _442
REMARK  190  A    between atoms: _445  and  _447
REMARK  191  A    between atoms: _447  and  _448
REMARK  192  A    between atoms: _447  and  _450
REMARK  193  A    between atoms: _450  and  _451
REMARK  194  A    between atoms: _454  and  _456
REMARK  195  A    between atoms: _456  and  _457
REMARK  196  A    between atoms: _456  and  _459
REMARK  197  A    between atoms: _459  and  _460
REMARK  198  A    between atoms: _460  and  _461
REMARK  199  A    between atoms: _461  and  _462
REMARK  200  A    between atoms: _462  and  _463
REMARK  201  A    between atoms: _467  and  _469
REMARK  202  A    between atoms: _469  and  _470
REMARK  203  A    between atoms: _469  and  _472
REMARK  204  A    between atoms: _472  and  _473
REMARK  205  A    between atoms: _483  and  _485
REMARK  206  A    between atoms: _485  and  _486
REMARK  207  A    between atoms: _485  and  _488
REMARK  208  A    between atoms: _488  and  _489
REMARK  209  A    between atoms: _489  and  _490
REMARK  210  A    between atoms: _493  and  _495
REMARK  211  A    between atoms: _495  and  _496
REMARK  212  A    between atoms: _495  and  _498
REMARK  213  A    between atoms: _498  and  _499
REMARK  214  A    between atoms: _501  and  _503
REMARK  215  A    between atoms: _503  and  _504
REMARK  216  A    between atoms: _503  and  _506
REMARK  217  A    between atoms: _506  and  _507
REMARK  218  A    between atoms: _513  and  _515
REMARK  219  A    between atoms: _515  and  _516
REMARK  220  A    between atoms: _515  and  _518
REMARK  221  A    between atoms: _518  and  _519
REMARK  222  A    between atoms: _522  and  _524
REMARK  223  A    between atoms: _524  and  _525
REMARK  224  A    between atoms: _524  and  _527
REMARK  225  A    between atoms: _530  and  _532
REMARK  226  A    between atoms: _532  and  _533
REMARK  227  A    between atoms: _535  and  _537
REMARK  228  A    between atoms: _537  and  _538
REMARK  229  A    between atoms: _537  and  _540
REMARK  230  A    between atoms: _540  and  _541
REMARK  231  A    between atoms: _544  and  _546
REMARK  232  A    between atoms: _546  and  _547
REMARK  233  A    between atoms: _546  and  _549
REMARK  234  A    between atoms: _549  and  _550
REMARK  235  A    between atoms: _550  and  _551
REMARK  236  A    between atoms: _551  and  _552
REMARK  237  A    between atoms: _552  and  _553
REMARK  238  A    between atoms: _557  and  _559
REMARK  239  A    between atoms: _559  and  _560
REMARK  240  A    between atoms: _559  and  _562
REMARK                            x       y       z     vdW  Elec       q    Type
REMARK                         _______ _______ _______ _____ _____    ______ ____
ROOT
ATOM      1  CA  ILE A   1      15.633 -13.866 -20.625  0.00  0.00    +0.133 C 
ENDROOT
BRANCH   1   2
ATOM      2  N   ILE A   1      16.961 -13.239 -20.805  0.00  0.00    -0.239 NA
ATOM      3  H   ILE A   1      17.327 -13.163 -21.775  0.00  0.00    +0.142 HD
ENDBRANCH   1   2
BRANCH   1   4
ATOM      4  C   ILE A   1      15.783 -15.199 -19.945  0.00  0.00    +0.224 C 
ATOM      5  O   ILE A   1      14.985 -15.505 -19.055  0.00  0.00    -0.287 OA
ENDBRANCH   1   4
BRANCH   1   6
ATOM      6  CB  ILE A   1      14.817 -13.951 -21.961  0.00  0.00    +0.023 C 
ATOM      7  CG2 ILE A   1      13.368 -14.455 -21.728  0.00  0.00    +0.002 C 
BRANCH   6   8
ATOM      8  CG1 ILE A   1      14.840 -12.604 -22.784  0.00  0.00    +0.002 C 
ATOM      9  CD1 ILE A   1      14.371 -11.274 -22.143  0.00  0.00    +0.000 C 
ENDBRANCH   6   8
ENDBRANCH   1   6
TORSDOF 4
REMARK  Name = ../refined-set-2016/4o04/4o04_pocket.pdb
REMARK  240 active torsions:
REMARK  status: ('A' for Active; 'I' for Inactive)
REMARK    1  A    between atoms: _1  and  _3
REMARK    2  A    between atoms: _3  and  _4
REMARK    3  A    between atoms: _3  and  _6
REMARK    4  A    between atoms: _6  and  _7
REMARK    5  A    between atoms: _13  and  _15
REMARK    6  A    between atoms: _15  and  _16
REMARK    7  A    between atoms: _15  and  _18
REMARK    8  A    between atoms: _18  and  _19
REMARK    9  A    between atoms: _22  and  _24
REMARK   10  A    between atoms: _24  and  _25
REMARK   11  A    between atoms: _24  and  _27
REMARK   12  A    between atoms: _27  and  _28
REMARK   13  A    between atoms: _31  and  _33
REMARK   14  A    between atoms: _33  and  _34
REMARK   15  A    between atoms: _33  and  _36
REMARK   16  A    between atoms: _36  and  _37
REMARK   17  A    between atoms: _37  and  _38
REMARK   18  A    between atoms: _41  and  _43
REMARK   19  A    between atoms: _43  and  _44
REMARK   20  A    between atoms: _43  and  _46
REMARK   21  A    between atoms: _46  and  _47
REMARK   22  A    between atoms: _50  and  _52
REMARK   23  A    between atoms: _52  and  _53
REMARK   24  A    between atoms: _52  and  _55
REMARK   25  A    between atoms: _55  and  _56
REMARK   26  A    between atoms: _59  and  _61
REMARK   27  A    between atoms: _61  and  _62
REMARK   28  A    between atoms: _61  and  _64
REMARK   29  A    between atoms: _64  and  _65
REMARK   30  A    between atoms: _67  and  _69
REMARK   31  A    between atoms: _69  and  _70
REMARK   32  A    between atoms: _69  and  _72
REMARK   33  A    between atoms: _72  and  _73
REMARK   34  A    between atoms: _78  and  _80
REMARK   35  A    between atoms: _80  and  _81
REMARK   36  A    between atoms: _80  and  _83
REMARK   37  A    between atoms: _83  and  _84
REMARK   38  A    between atoms: _86  and  _88
REMARK   39  A    between atoms: _88  and  _89
REMARK   40  A    between atoms: _88  and  _91
REMARK   41  A    between atoms: _91  and  _92
REMARK   42  A    between atoms: _94  and  _96
REMARK   43  A    between atoms: _96  and  _97
REMARK   44  A    between atoms: _96  and  _99
REMARK   45  A    between atoms: _99  and  _100
REMARK   46  A    between atoms: _103  and  _105
REMARK   47  A    between atoms: _105  and  _106
REMARK   48  A    between atoms: _109  and  _111
REMARK   49  A    between atoms: _111  and  _112
REMARK   50  A    between atoms: _111  and  _114
REMARK   51  A    between atoms: _114  and  _115
REMARK   52  A    between atoms: _118  and  _120
REMARK   53  A    between atoms: _120  and  _121
REMARK   54  A    between atoms: _120  and  _123
REMARK   55  A    between atoms: _123  and  _124
REMARK   56  A    between atoms: _124  and  _125
REMARK   57  A    between atoms: _125  and  _126
REMARK   58  A    between atoms: _126  and  _127
REMARK   59  A    between atoms: _131  and  _133
REMARK   60  A    between atoms: _133  and  _134
REMARK   61  A    between atoms: _133  and  _136
REMARK   62  A    between atoms: _136  and  _137
REMARK   63  A    between atoms: _140  and  _142
REMARK   64  A    between atoms: _142  and  _143
REMARK   65  A    between atoms: _142  and  _145
REMARK   66  A    between atoms: _148  and  _150
REMARK   67  A    between atoms: _150  and  _151
REMARK   68  A    between atoms: _150  and  _153
REMARK   69  A    between atoms: _153  and  _154
REMARK   70  A    between atoms: _157  and  _159
REMARK   71  A    between atoms: _159  and  _160
REMARK   72  A    between atoms: _159  and  _162
REMARK   73  A    between atoms: _162  and  _163
REMARK   74  A    between atoms: _166  and  _168
REMARK   75  A    between atoms: _168  and  _169
REMARK   76  A    between atoms: _171  and  _173
REMARK   77  A    between atoms: _173  and  _174
REMARK   78  A    between atoms: _173  and  _176
REMARK   79  A    between atoms: _176  and  _177
REMARK   80  A    between atoms: _180  and  _182
REMARK   81  A    between atoms: _182  and  _183
REMARK   82  A    between atoms: _185  and  _187
REMARK   83  A    between atoms: _187  and  _188
REMARK   84  A    between atoms: _187  and  _190
REMARK   85  A    between atoms: _190  and  _191
REMARK   86  A    between atoms: _191  and  _192
REMARK   87  A    between atoms: _194  and  _196
REMARK   88  A    between atoms: _196  and  _197
REMARK   89  A    between atoms: _196  and  _199
REMARK   90  A    between atoms: _199  and  _200
REMARK   91  A    between atoms: _203  and  _205
REMARK   92  A    between atoms: _205  and  _206
REMARK   93  A    between atoms: _205  and  _208
REMARK   94  A    between atoms: _208  and  _209
REMARK   95  A    between atoms: _209  and  _210
REMARK   96  A    between atoms: _210  and  _211
REMARK   97  A    between atoms: _211  and  _212
REMARK   98  A    between atoms: _216  and  _218
REMARK   99  A    between atoms: _218  and  _219
REMARK  100  A    between atoms: _222  and  _224
REMARK  101  A    between atoms: _224  and  _225
REMARK  102  A    between atoms: _224  and  _227
REMARK  103  A    between atoms: _227  and  _228
REMARK  104  A    between atoms: _231  and  _233
REMARK  105  A    between atoms: _233  and  _234
REMARK  106  A    between atoms: _233  and  _236
REMARK  107  A    between atoms: _236  and  _237
REMARK  108  A    between atoms: _240  and  _242
REMARK  109  A    between atoms: _242  and  _243
REMARK  110  A    between atoms: _242  and  _245
REMARK  111  A    between atoms: _245  and  _246
REMARK  112  A    between atoms: _249  and  _251
REMARK  113  A    between atoms: _251  and  _252
REMARK  114  A    between atoms: _251  and  _254
REMARK  115  A    between atoms: _254  and  _255
REMARK  116  A    between atoms: _260  and  _262
REMARK  117  A    between atoms: _262  and  _263
REMARK  118  A    between atoms: _262  and  _265
REMARK  119  A    between atoms: _265  and  _266
REMARK  120  A    between atoms: _271  and  _273
REMARK  121  A    between atoms: _273  and  _274
REMARK  122  A    between atoms: _273  and  _276
REMARK  123  A    between atoms: _276  and  _277
REMARK  124  A    between atoms: _280  and  _282
REMARK  125  A    between atoms: _282  and  _283
REMARK  126  A    between atoms: _285  and  _287
REMARK  127  A    between atoms: _287  and  _288
REMARK  128  A    between atoms: _287  and  _290
REMARK  129  A    between atoms: _290  and  _291
REMARK  130  A    between atoms: _294  and  _296
REMARK  131  A    between atoms: _296  and  _297
REMARK  132  A    between atoms: _296  and  _299
REMARK  133  A    between atoms: _299  and  _300
REMARK  134  A    between atoms: _303  and  _305
REMARK  135  A    between atoms: _305  and  _306
REMARK  136  A    between atoms: _309  and  _311
REMARK  137  A    between atoms: _311  and  _312
REMARK  138  A    between atoms: _311  and  _314
REMARK  139  A    between atoms: _314  and  _315
REMARK  140  A    between atoms: _315  and  _316
REMARK  141  A    between atoms: _316  and  _317
REMARK  142  A    between atoms: _317  and  _318
REMARK  143  A    between atoms: _322  and  _324
REMARK  144  A    between atoms: _324  and  _325
REMARK  145  A    between atoms: _327  and  _329
REMARK  146  A    between atoms: _329  and  _330
REMARK  147  A    between atoms: _329  and  _332
REMARK  148  A    between atoms: _332  and  _333
REMARK  149  A    between atoms: _336  and  _338
REMARK  150  A    between atoms: _338  and  _339
REMARK  151  A    between atoms: _341  and  _343
REMARK  152  A    between atoms: _343  and  _344
REMARK  153  A    between atoms: _343  and  _346
REMARK  154  A    between atoms: _346  and  _347
REMARK  155  A    between atoms: _353  and  _355
REMARK  156  A    between atoms: _355  and  _356
REMARK  157  A    between atoms: _358  and  _360
REMARK  158  A    between atoms: _360  and  _361
REMARK  159  A    between atoms: _360  and  _363
REMARK  160  A    between atoms: _366  and  _368
REMARK  161  A    between atoms: _368  and  _369
REMARK  162  A    between atoms: _371  and  _373
REMARK  163  A    between atoms: _373  and  _374
REMARK  164  A    between atoms: _373  and  _376
REMARK  165  A    between atoms: _376  and  _377
REMARK  166  A    between atoms: _383  and  _385
REMARK  167  A    between atoms: _385  and  _386
REMARK  168  A    between atoms: _385  and  _388
REMARK  169  A    between atoms: _388  and  _389
REMARK  170  A    between atoms: _394  and  _395
REMARK  171  A    between atoms: _397  and  _399
REMARK  172  A    between atoms: _399  and  _400
REMARK  173  A    between atoms: _399  and  _402
REMARK  174  A    between atoms: _402  and  _403
REMARK  175  A    between atoms: _408  and  _409
REMARK  176  A    between atoms: _411  and  _413
REMARK  177  A    between atoms: _413  and  _414
REMARK  178  A    between atoms: _413  and  _416
REMARK  179  A    between atoms: _419  and  _421
REMARK  180  A    between atoms: _421  and  _422
REMARK  181  A    between atoms: _421  and  _424
REMARK  182  A    between atoms: _424  and  _425
REMARK  183  A    between atoms: _428  and  _430
REMARK  184  A    between atoms: _430  and  _431
REMARK  185  A    between atoms: _430  and  _433
REMARK  186  A    between atoms: _436  and  _438
REMARK  187  A    between atoms: _438  and  _439
REMARK  188  A    between atoms: _438  and  _441
REMARK  189  A    between atoms: _441  and  _442
REMARK  190  A    between atoms: _445  and  _447
REMARK  191  A    between atoms: _447  and  _448
REMARK  192  A    between atoms: _447  and  _450
REMARK  193  A    between atoms: _450  and  _451
REMARK  194  A    between atoms: _454  and  _456
REMARK  195  A    between atoms: _456  and  _457
REMARK  196  A    between atoms: _456  and  _459
REMARK  197  A    between atoms: _459  and  _460
REMARK  198  A    between atoms: _460  and  _461
REMARK  199  A    between atoms: _461  and  _462
REMARK  200  A    between atoms: _462  and  _463
REMARK  201  A    between atoms: _467  and  _469
REMARK  202  A    between atoms: _469  and  _470
REMARK  203  A    between atoms: _469  and  _472
REMARK  204  A    between atoms: _472  and  _473
REMARK  205  A    between atoms: _483  and  _485
REMARK  206  A    between atoms: _485  and  _486
REMARK  207  A    between atoms: _485  and  _488
REMARK  208  A    between atoms: _488  and  _489
REMARK  209  A    between atoms: _489  and  _490
REMARK  210  A    between atoms: _493  and  _495
REMARK  211  A    between atoms: _495  and  _496
REMARK  212  A    between atoms: _495  and  _498
REMARK  213  A    between atoms: _498  and  _499
REMARK  214  A    between atoms: _501  and  _503
REMARK  215  A    between atoms: _503  and  _504
REMARK  216  A    between atoms: _503  and  _506
REMARK  217  A    between atoms: _506  and  _507
REMARK  218  A    between atoms: _513  and  _515
REMARK  219  A    between atoms: _515  and  _516
REMARK  220  A    between atoms: _515  and  _518
REMARK  221  A    between atoms: _518  and  _519
REMARK  222  A    between atoms: _522  and  _524
REMARK  223  A    between atoms: _524  and  _525
REMARK  224  A    between atoms: _524  and  _527
REMARK  225  A    between atoms: _530  and  _532
REMARK  226  A    between atoms: _532  and  _533
REMARK  227  A    between atoms: _535  and  _537
REMARK  228  A    between atoms: _537  and  _538
REMARK  229  A    between atoms: _537  and  _540
REMARK  230  A    between atoms: _540  and  _541
REMARK  231  A    between atoms: _544  and  _546
REMARK  232  A    between atoms: _546  and  _547
REMARK  233  A    between atoms: _546  and  _549
REMARK  234  A    between atoms: _549  and  _550
REMARK  235  A    between atoms: _550  and  _551
REMARK  236  A    between atoms: _551  and  _552
REMARK  237  A    between atoms: _552  and  _553
REMARK  238  A    between atoms: _557  and  _559
REMARK  239  A    between atoms: _559  and  _560
REMARK  240  A    between atoms: _559  and  _562
REMARK                            x       y       z     vdW  Elec       q    Type
REMARK                         _______ _______ _______ _____ _____    ______ ____
ROOT
ATOM      1  CA  LEU A   1      15.201 -13.981 -15.767  0.00  0.00    +0.133 C 
ENDROOT
BRANCH   1   2
ATOM      2  N   LEU A   1      16.471 -14.420 -16.377  0.00  0.00    -0.239 NA
ATOM      3  H   LEU A   1      16.699 -14.093 -17.337  0.00  0.00    +0.142 HD
ENDBRANCH   1   2
BRANCH   1   4
ATOM      4  C   LEU A   1      14.346 -15.224 -15.395  0.00  0.00    +0.224 C 
ATOM      5  O   LEU A   1      13.855 -15.345 -14.268  0.00  0.00    -0.287 OA
ENDBRANCH   1   4
BRANCH   1   6
ATOM      6  CB  LEU A   1      14.411 -13.089 -16.733  0.00  0.00    +0.025 C 
BRANCH   6   7
ATOM      7  CG  LEU A   1      13.009 -12.619 -16.183  0.00  0.00    +0.002 C 
ATOM      8  CD2 LEU A   1      13.151 -11.757 -14.907  0.00  0.00    +0.000 C 
ATOM      9  CD1 LEU A   1      12.143 -11.968 -17.270  0.00  0.00    +0.000 C 
ENDBRANCH   6   7
ENDBRANCH   1   6
TORSDOF 4
REMARK  Name = ../refined-set-2016/4o04/4o04_pocket.pdb
REMARK  240 active torsions:
REMARK  status: ('A' for Active; 'I' for Inactive)
REMARK    1  A    between atoms: _1  and  _3
REMARK    2  A    between atoms: _3  and  _4
REMARK    3  A    between atoms: _3  and  _6
REMARK    4  A    between atoms: _6  and  _7
REMARK    5  A    between atoms: _13  and  _15
REMARK    6  A    between atoms: _15  and  _16
REMARK    7  A    between atoms: _15  and  _18
REMARK    8  A    between atoms: _18  and  _19
REMARK    9  A    between atoms: _22  and  _24
REMARK   10  A    between atoms: _24  and  _25
REMARK   11  A    between atoms: _24  and  _27
REMARK   12  A    between atoms: _27  and  _28
REMARK   13  A    between atoms: _31  and  _33
REMARK   14  A    between atoms: _33  and  _34
REMARK   15  A    between atoms: _33  and  _36
REMARK   16  A    between atoms: _36  and  _37
REMARK   17  A    between atoms: _37  and  _38
REMARK   18  A    between atoms: _41  and  _43
REMARK   19  A    between atoms: _43  and  _44
REMARK   20  A    between atoms: _43  and  _46
REMARK   21  A    between atoms: _46  and  _47
REMARK   22  A    between atoms: _50  and  _52
REMARK   23  A    between atoms: _52  and  _53
REMARK   24  A    between atoms: _52  and  _55
REMARK   25  A    between atoms: _55  and  _56
REMARK   26  A    between atoms: _59  and  _61
REMARK   27  A    between atoms: _61  and  _62
REMARK   28  A    between atoms: _61  and  _64
REMARK   29  A    between atoms: _64  and  _65
REMARK   30  A    between atoms: _67  and  _69
REMARK   31  A    between atoms: _69  and  _70
REMARK   32  A    between atoms: _69  and  _72
REMARK   33  A    between atoms: _72  and  _73
REMARK   34  A    between atoms: _78  and  _80
REMARK   35  A    between atoms: _80  and  _81
REMARK   36  A    between atoms: _80  and  _83
REMARK   37  A    between atoms: _83  and  _84
REMARK   38  A    between atoms: _86  and  _88
REMARK   39  A    between atoms: _88  and  _89
REMARK   40  A    between atoms: _88  and  _91
REMARK   41  A    between atoms: _91  and  _92
REMARK   42  A    between atoms: _94  and  _96
REMARK   43  A    between atoms: _96  and  _97
REMARK   44  A    between atoms: _96  and  _99
REMARK   45  A    between atoms: _99  and  _100
REMARK   46  A    between atoms: _103  and  _105
REMARK   47  A    between atoms: _105  and  _106
REMARK   48  A    between atoms: _109  and  _111
REMARK   49  A    between atoms: _111  and  _112
REMARK   50  A    between atoms: _111  and  _114
REMARK   51  A    between atoms: _114  and  _115
REMARK   52  A    between atoms: _118  and  _120
REMARK   53  A    between atoms: _120  and  _121
REMARK   54  A    between atoms: _120  and  _123
REMARK   55  A    between atoms: _123  and  _124
REMARK   56  A    between atoms: _124  and  _125
REMARK   57  A    between atoms: _125  and  _126
REMARK   58  A    between atoms: _126  and  _127
REMARK   59  A    between atoms: _131  and  _133
REMARK   60  A    between atoms: _133  and  _134
REMARK   61  A    between atoms: _133  and  _136
REMARK   62  A    between atoms: _136  and  _137
REMARK   63  A    between atoms: _140  and  _142
REMARK   64  A    between atoms: _142  and  _143
REMARK   65  A    between atoms: _142  and  _145
REMARK   66  A    between atoms: _148  and  _150
REMARK   67  A    between atoms: _150  and  _151
REMARK   68  A    between atoms: _150  and  _153
REMARK   69  A    between atoms: _153  and  _154
REMARK   70  A    between atoms: _157  and  _159
REMARK   71  A    between atoms: _159  and  _160
REMARK   72  A    between atoms: _159  and  _162
REMARK   73  A    between atoms: _162  and  _163
REMARK   74  A    between atoms: _166  and  _168
REMARK   75  A    between atoms: _168  and  _169
REMARK   76  A    between atoms: _171  and  _173
REMARK   77  A    between atoms: _173  and  _174
REMARK   78  A    between atoms: _173  and  _176
REMARK   79  A    between atoms: _176  and  _177
REMARK   80  A    between atoms: _180  and  _182
REMARK   81  A    between atoms: _182  and  _183
REMARK   82  A    between atoms: _185  and  _187
REMARK   83  A    between atoms: _187  and  _188
REMARK   84  A    between atoms: _187  and  _190
REMARK   85  A    between atoms: _190  and  _191
REMARK   86  A    between atoms: _191  and  _192
REMARK   87  A    between atoms: _194  and  _196
REMARK   88  A    between atoms: _196  and  _197
REMARK   89  A    between atoms: _196  and  _199
REMARK   90  A    between atoms: _199  and  _200
REMARK   91  A    between atoms: _203  and  _205
REMARK   92  A    between atoms: _205  and  _206
REMARK   93  A    between atoms: _205  and  _208
REMARK   94  A    between atoms: _208  and  _209
REMARK   95  A    between atoms: _209  and  _210
REMARK   96  A    between atoms: _210  and  _211
REMARK   97  A    between atoms: _211  and  _212
REMARK   98  A    between atoms: _216  and  _218
REMARK   99  A    between atoms: _218  and  _219
REMARK  100  A    between atoms: _222  and  _224
REMARK  101  A    between atoms: _224  and  _225
REMARK  102  A    between atoms: _224  and  _227
REMARK  103  A    between atoms: _227  and  _228
REMARK  104  A    between atoms: _231  and  _233
REMARK  105  A    between atoms: _233  and  _234
REMARK  106  A    between atoms: _233  and  _236
REMARK  107  A    between atoms: _236  and  _237
REMARK  108  A    between atoms: _240  and  _242
REMARK  109  A    between atoms: _242  and  _243
REMARK  110  A    between atoms: _242  and  _245
REMARK  111  A    between atoms: _245  and  _246
REMARK  112  A    between atoms: _249  and  _251
REMARK  113  A    between atoms: _251  and  _252
REMARK  114  A    between atoms: _251  and  _254
REMARK  115  A    between atoms: _254  and  _255
REMARK  116  A    between atoms: _260  and  _262
REMARK  117  A    between atoms: _262  and  _263
REMARK  118  A    between atoms: _262  and  _265
REMARK  119  A    between atoms: _265  and  _266
REMARK  120  A    between atoms: _271  and  _273
REMARK  121  A    between atoms: _273  and  _274
REMARK  122  A    between atoms: _273  and  _276
REMARK  123  A    between atoms: _276  and  _277
REMARK  124  A    between atoms: _280  and  _282
REMARK  125  A    between atoms: _282  and  _283
REMARK  126  A    between atoms: _285  and  _287
REMARK  127  A    between atoms: _287  and  _288
REMARK  128  A    between atoms: _287  and  _290
REMARK  129  A    between atoms: _290  and  _291
REMARK  130  A    between atoms: _294  and  _296
REMARK  131  A    between atoms: _296  and  _297
REMARK  132  A    between atoms: _296  and  _299
REMARK  133  A    between atoms: _299  and  _300
REMARK  134  A    between atoms: _303  and  _305
REMARK  135  A    between atoms: _305  and  _306
REMARK  136  A    between atoms: _309  and  _311
REMARK  137  A    between atoms: _311  and  _312
REMARK  138  A    between atoms: _311  and  _314
REMARK  139  A    between atoms: _314  and  _315
REMARK  140  A    between atoms: _315  and  _316
REMARK  141  A    between atoms: _316  and  _317
REMARK  142  A    between atoms: _317  and  _318
REMARK  143  A    between atoms: _322  and  _324
REMARK  144  A    between atoms: _324  and  _325
REMARK  145  A    between atoms: _327  and  _329
REMARK  146  A    between atoms: _329  and  _330
REMARK  147  A    between atoms: _329  and  _332
REMARK  148  A    between atoms: _332  and  _333
REMARK  149  A    between atoms: _336  and  _338
REMARK  150  A    between atoms: _338  and  _339
REMARK  151  A    between atoms: _341  and  _343
REMARK  152  A    between atoms: _343  and  _344
REMARK  153  A    between atoms: _343  and  _346
REMARK  154  A    between atoms: _346  and  _347
REMARK  155  A    between atoms: _353  and  _355
REMARK  156  A    between atoms: _355  and  _356
REMARK  157  A    between atoms: _358  and  _360
REMARK  158  A    between atoms: _360  and  _361
REMARK  159  A    between atoms: _360  and  _363
REMARK  160  A    between atoms: _366  and  _368
REMARK  161  A    between atoms: _368  and  _369
REMARK  162  A    between atoms: _371  and  _373
REMARK  163  A    between atoms: _373  and  _374
REMARK  164  A    between atoms: _373  and  _376
REMARK  165  A    between atoms: _376  and  _377
REMARK  166  A    between atoms: _383  and  _385
REMARK  167  A    between atoms: _385  and  _386
REMARK  168  A    between atoms: _385  and  _388
REMARK  169  A    between atoms: _388  and  _389
REMARK  170  A    between atoms: _394  and  _395
REMARK  171  A    between atoms: _397  and  _399
REMARK  172  A    between atoms: _399  and  _400
REMARK  173  A    between atoms: _399  and  _402
REMARK  174  A    between atoms: _402  and  _403
REMARK  175  A    between atoms: _408  and  _409
REMARK  176  A    between atoms: _411  and  _413
REMARK  177  A    between atoms: _413  and  _414
REMARK  178  A    between atoms: _413  and  _416
REMARK  179  A    between atoms: _419  and  _421
REMARK  180  A    between atoms: _421  and  _422
REMARK  181  A    between atoms: _421  and  _424
REMARK  182  A    between atoms: _424  and  _425
REMARK  183  A    between atoms: _428  and  _430
REMARK  184  A    between atoms: _430  and  _431
REMARK  185  A    between atoms: _430  and  _433
REMARK  186  A    between atoms: _436  and  _438
REMARK  187  A    between atoms: _438  and  _439
REMARK  188  A    between atoms: _438  and  _441
REMARK  189  A    between atoms: _441  and  _442
REMARK  190  A    between atoms: _445  and  _447
REMARK  191  A    between atoms: _447  and  _448
REMARK  192  A    between atoms: _447  and  _450
REMARK  193  A    between atoms: _450  and  _451
REMARK  194  A    between atoms: _454  and  _456
REMARK  195  A    between atoms: _456  and  _457
REMARK  196  A    between atoms: _456  and  _459
REMARK  197  A    between atoms: _459  and  _460
REMARK  198  A    between atoms: _460  and  _461
REMARK  199  A    between atoms: _461  and  _462
REMARK  200  A    between atoms: _462  and  _463
REMARK  201  A    between atoms: _467  and  _469
REMARK  202  A    between atoms: _469  and  _470
REMARK  203  A    between atoms: _469  and  _472
REMARK  204  A    between atoms: _472  and  _473
REMARK  205  A    between atoms: _483  and  _485
REMARK  206  A    between atoms: _485  and  _486
REMARK  207  A    between atoms: _485  and  _488
REMARK  208  A    between atoms: _488  and  _489
REMARK  209  A    between atoms: _489  and  _490
REMARK  210  A    between atoms: _493  and  _495
REMARK  211  A    between atoms: _495  and  _496
REMARK  212  A    between atoms: _495  and  _498
REMARK  213  A    between atoms: _498  and  _499
REMARK  214  A    between atoms: _501  and  _503
REMARK  215  A    between atoms: _503  and  _504
REMARK  216  A    between atoms: _503  and  _506
REMARK  217  A    between atoms: _506  and  _507
REMARK  218  A    between atoms: _513  and  _515
REMARK  219  A    between atoms: _515  and  _516
REMARK  220  A    between atoms: _515  and  _518
REMARK  221  A    between atoms: _518  and  _519
REMARK  222  A    between atoms: _522  and  _524
REMARK  223  A    between atoms: _524  and  _525
REMARK  224  A    between atoms: _524  and  _527
REMARK  225  A    between atoms: _530  and  _532
REMARK  226  A    between atoms: _532  and  _533
REMARK  227  A    between atoms: _535  and  _537
REMARK  228  A    between atoms: _537  and  _538
REMARK  229  A    between atoms: _537  and  _540
REMARK  230  A    between atoms: _540  and  _541
REMARK  231  A    between atoms: _544  and  _546
REMARK  232  A    between atoms: _546  and  _547
REMARK  233  A    between atoms: _546  and  _549
REMARK  234  A    between atoms: _549  and  _550
REMARK  235  A    between atoms: _550  and  _551
REMARK  236  A    between atoms: _551  and  _552
REMARK  237  A    between atoms: _552  and  _553
REMARK  238  A    between atoms: _557  and  _559
REMARK  239  A    between atoms: _559  and  _560
REMARK  240  A    between atoms: _559  and  _562
REMARK                            x       y       z     vdW  Elec       q    Type
REMARK                         _______ _______ _______ _____ _____    ______ ____
ROOT
ATOM      1  CA  ASN A   5      -1.129  -8.499 -21.004  0.00  0.00    +0.158 C 
ENDROOT
BRANCH   1   3
ATOM      2  C   SER A   4      -2.304  -7.142 -19.243  0.00  0.00    +0.243 C 
ATOM      3  N   ASN A   5      -1.608  -8.259 -19.616  0.00  0.00    -0.297 N 
ATOM      4  H   ASN A   5      -1.403  -8.977 -18.892  0.00  0.00    +0.150 HD
ATOM      5  O   SER A   4      -2.600  -6.240 -20.019  0.00  0.00    -0.273 OA
BRANCH   2   6
ATOM      6  CA  SER A   4      -2.764  -7.047 -17.800  0.00  0.00    +0.178 C 
BRANCH   6   8
ATOM      7  C   ILE A   3      -4.338  -8.987 -17.872  0.00  0.00    +0.241 C 
ATOM      8  N   SER A   4      -3.259  -8.353 -17.322  0.00  0.00    -0.295 N 
ATOM      9  H   SER A   4      -2.764  -8.812 -16.531  0.00  0.00    +0.150 HD
ATOM     10  O   ILE A   3      -5.026  -8.486 -18.792  0.00  0.00    -0.273 OA
BRANCH   7  11
ATOM     11  CA  ILE A   3      -4.737 -10.381 -17.333  0.00  0.00    +0.149 C 
BRANCH  11  13
ATOM     12  C   LEU A   2      -2.639 -11.497 -18.007  0.00  0.00    +0.241 C 
ATOM     13  N   ILE A   3      -3.497 -11.152 -17.020  0.00  0.00    -0.297 N 
ATOM     14  H   ILE A   3      -3.292 -11.425 -16.038  0.00  0.00    +0.150 HD
ATOM     15  O   LEU A   2      -2.827 -11.255 -19.217  0.00  0.00    -0.273 OA
BRANCH  12  16
ATOM     16  CA  LEU A   2      -1.364 -12.212 -17.580  0.00  0.00    +0.149 C 
BRANCH  16  18
ATOM     17  C   GLU A   1      -0.251 -10.427 -16.300  0.00  0.00    +0.238 C 
ATOM     18  N   LEU A   2      -0.842 -11.634 -16.321  0.00  0.00    -0.297 N 
ATOM     19  H   LEU A   2      -0.934 -12.172 -15.436  0.00  0.00    +0.150 HD
ATOM     20  O   GLU A   1      -0.088  -9.733 -17.307  0.00  0.00    -0.274 OA
BRANCH  17  21
ATOM     21  CA  GLU A   1       0.261  -9.941 -14.942  0.00  0.00    +0.145 C 
BRANCH  21  22
ATOM     22  N   GLU A   1      -0.681 -10.262 -13.873  0.00  0.00    -0.238 NA
ATOM     23  H   GLU A   1      -0.397 -10.943 -13.140  0.00  0.00    +0.142 HD
ENDBRANCH  21  22
BRANCH  21  24
ATOM     24  CB  GLU A   1       1.667 -10.511 -14.662  0.00  0.00    +0.038 C 
BRANCH  24  25
ATOM     25  CG  GLU A   1       2.315  -9.906 -13.398  0.00  0.00    +0.116 C 
BRANCH  25  26
ATOM     26  CD  GLU A   1       2.341  -8.379 -13.303  0.00  0.00    +0.365 C 
ATOM     27  OE2 GLU A   1       2.149  -7.856 -12.188  0.00  0.00    -0.246 OA
ATOM     28  OE1 GLU A   1       2.503  -7.709 -14.344  0.00  0.00    -0.246 OA
ENDBRANCH  25  26
ENDBRANCH  24  25
ENDBRANCH  21  24
ENDBRANCH  17  21
ENDBRANCH  16  18
BRANCH  16  29
ATOM     29  CB  LEU A   2      -1.567 -13.747 -17.470  0.00  0.00    +0.029 C 
BRANCH  29  30
ATOM     30  CG  LEU A   2      -0.258 -14.546 -17.092  0.00  0.00    +0.002 C 
ATOM     31  CD2 LEU A   2      -0.575 -16.052 -16.983  0.00  0.00    +0.000 C 
ATOM     32  CD1 LEU A   2       0.898 -14.352 -18.092  0.00  0.00    +0.000 C 
ENDBRANCH  29  30
ENDBRANCH  16  29
ENDBRANCH  12  16
ENDBRANCH  11  13
BRANCH  11  33
ATOM     33  CB  ILE A   3      -5.661 -10.342 -16.088  0.00  0.00    +0.027 C 
ATOM     34  CG2 ILE A   3      -6.755  -9.188 -16.227  0.00  0.00    +0.002 C 
BRANCH  33  35
ATOM     35  CG1 ILE A   3      -6.294 -11.763 -15.818  0.00  0.00    +0.002 C 
ATOM     36  CD1 ILE A   3      -7.058 -11.942 -14.470  0.00  0.00    +0.000 C 
ENDBRANCH  33  35
ENDBRANCH  11  33
ENDBRANCH   7  11
ENDBRANCH   6   8
BRANCH   6  37
ATOM     37  CB  SER A   4      -1.625  -6.534 -16.930  0.00  0.00    +0.166 C 
BRANCH  37  38
ATOM     38  OG  SER A   4      -2.161  -6.307 -15.644  0.00  0.00    -0.380 OA
ATOM     39  H   SER A   4      -2.523  -7.155 -15.284  0.00  0.00    +0.211 HD
ENDBRANCH  37  38
ENDBRANCH   6  37
ENDBRANCH   2   6
ENDBRANCH   1   3
BRANCH   1  40
ATOM     40  C   ASN A   5      -2.336  -8.590 -21.922  0.00  0.00    +0.241 C 
ATOM     41  N   SER A   6      -3.405  -9.304 -21.485  0.00  0.00    -0.295 N 
ATOM     42  H   SER A   6      -3.332  -9.761 -20.553  0.00  0.00    +0.150 HD
ATOM     43  O   ASN A   5      -2.324  -7.960 -22.963  0.00  0.00    -0.273 OA
BRANCH  41  44
ATOM     44  CA  SER A   6      -4.665  -9.479 -22.238  0.00  0.00    +0.178 C 
BRANCH  44  45
ATOM     45  C   SER A   6      -5.386  -8.143 -22.439  0.00  0.00    +0.243 C 
ATOM     46  N   SER A   7      -5.533  -7.385 -21.361  0.00  0.00    -0.295 N 
ATOM     47  H   SER A   7      -5.164  -7.748 -20.459  0.00  0.00    +0.150 HD
ATOM     48  O   SER A   6      -5.795  -7.809 -23.550  0.00  0.00    -0.273 OA
BRANCH  46  49
ATOM     49  CA  SER A   7      -6.185  -6.061 -21.353  0.00  0.00    +0.178 C 
BRANCH  49  50
ATOM     50  C   SER A   7      -5.464  -5.109 -22.321  0.00  0.00    +0.243 C 
ATOM     51  N   ASP A   8      -4.086  -5.086 -22.297  0.00  0.00    -0.296 N 
ATOM     52  H   ASP A   8      -3.583  -5.682 -21.609  0.00  0.00    +0.150 HD
ATOM     53  O   SER A   7      -6.141  -4.402 -23.106  0.00  0.00    -0.273 OA
BRANCH  51  54
ATOM     54  CA  ASP A   8      -3.303  -4.238 -23.222  0.00  0.00    +0.160 C 
BRANCH  54  55
ATOM     55  C   ASP A   8      -3.552  -4.662 -24.672  0.00  0.00    +0.241 C 
ATOM     56  N   ALA A   9      -3.645  -6.004 -24.933  0.00  0.00    -0.297 N 
ATOM     57  H   ALA A   9      -3.523  -6.685 -24.157  0.00  0.00    +0.150 HD
ATOM     58  O   ASP A   8      -3.704  -3.810 -25.562  0.00  0.00    -0.273 OA
BRANCH  56  59
ATOM     59  CA  ALA A   9      -3.921  -6.510 -26.324  0.00  0.00    +0.149 C 
ATOM     60  CB  ALA A   9      -3.728  -8.006 -26.375  0.00  0.00    +0.031 C 
BRANCH  59  61
ATOM     61  C   ALA A   9      -5.327  -6.148 -26.798  0.00  0.00    +0.241 C 
ATOM     62  N   LEU A  10      -6.301  -6.167 -25.869  0.00  0.00    -0.298 N 
ATOM     63  H   LEU A  10      -6.067  -6.447 -24.895  0.00  0.00    +0.150 HD
ATOM     64  O   ALA A   9      -5.540  -5.878 -27.987  0.00  0.00    -0.273 OA
BRANCH  62  65
ATOM     65  CA  LEU A  10      -7.692  -5.800 -26.198  0.00  0.00    +0.137 C 
BRANCH  65  66
ATOM     66  C   LEU A  10      -7.748  -4.284 -26.440  0.00  0.00    +0.227 C 
ATOM     67  O   LEU A  10      -8.389  -3.870 -27.406  0.00  0.00    -0.286 OA
ENDBRANCH  65  66
BRANCH  65  68
ATOM     68  CB  LEU A  10      -8.584  -6.202 -25.050  0.00  0.00    +0.028 C 
BRANCH  68  69
ATOM     69  CG  LEU A  10      -8.789  -7.726 -25.005  0.00  0.00    +0.002 C 
ATOM     70  CD2 LEU A  10      -9.141  -8.078 -23.650  0.00  0.00    +0.000 C 
ATOM     71  CD1 LEU A  10      -9.879  -8.143 -25.999  0.00  0.00    +0.000 C 
ENDBRANCH  68  69
ENDBRANCH  65  68
ENDBRANCH  62  65
ENDBRANCH  59  61
ENDBRANCH  56  59
ENDBRANCH  54  55
BRANCH  54  72
ATOM     72  CB  ASP A   8      -1.827  -4.335 -22.896  0.00  0.00    +0.143 C 
BRANCH  72  73
ATOM     73  CG  ASP A   8      -1.428  -3.636 -21.605  0.00  0.00    +0.367 C 
ATOM     74  OD2 ASP A   8      -2.286  -2.969 -20.993  0.00  0.00    -0.246 OA
ATOM     75  OD1 ASP A   8      -0.266  -3.787 -21.194  0.00  0.00    -0.246 OA
ENDBRANCH  72  73
ENDBRANCH  54  72
ENDBRANCH  51  54
ENDBRANCH  49  50
BRANCH  49  76
ATOM     76  CB  SER A   7      -6.217  -5.535 -19.918  0.00  0.00    +0.166 C 
BRANCH  76  77
ATOM     77  OG  SER A   7      -6.834  -4.255 -19.900  0.00  0.00    -0.380 OA
ATOM     78  H   SER A   7      -6.317  -3.633 -20.470  0.00  0.00    +0.211 HD
ENDBRANCH  76  77
ENDBRANCH  49  76
ENDBRANCH  46  49
ENDBRANCH  44  45
BRANCH  44  79
ATOM     79  CB  SER A   6      -5.570 -10.446 -21.457  0.00  0.00    +0.166 C 
BRANCH  79  80
ATOM     80  OG  SER A   6      -5.063 -11.775 -21.604  0.00  0.00    -0.380 OA
ATOM     81  H   SER A   6      -5.058 -12.021 -22.563  0.00  0.00    +0.211 HD
ENDBRANCH  79  80
ENDBRANCH  44  79
ENDBRANCH  41  44
ENDBRANCH   1  40
BRANCH   1  82
ATOM     82  CB  ASN A   5      -0.306  -9.810 -21.119  0.00  0.00    +0.114 C 
BRANCH  82  83
ATOM     83  CG  ASN A   5       1.116  -9.715 -20.558  0.00  0.00    +0.222 C 
ATOM     84  ND2 ASN A   5       1.670 -10.837 -20.287  0.00  0.00    -0.329 N 
ATOM     85 HD21 ASN A   5       2.647 -10.862 -19.931  0.00  0.00    +0.145 HD
ATOM     86 HD22 ASN A   5       1.143 -11.723 -20.423  0.00  0.00    +0.145 HD
ATOM     87  OD1 ASN A   5       1.723  -8.636 -20.405  0.00  0.00    -0.275 OA
ENDBRANCH  82  83
ENDBRANCH   1  82
TORSDOF 39
REMARK  Name = ../refined-set-2016/4o04/4o04_pocket.pdb
REMARK  240 active torsions:
REMARK  status: ('A' for Active; 'I' for Inactive)
REMARK    1  A    between atoms: _1  and  _3
REMARK    2  A    between atoms: _3  and  _4
REMARK    3  A    between atoms: _3  and  _6
REMARK    4  A    between atoms: _6  and  _7
REMARK    5  A    between atoms: _13  and  _15
REMARK    6  A    between atoms: _15  and  _16
REMARK    7  A    between atoms: _15  and  _18
REMARK    8  A    between atoms: _18  and  _19
REMARK    9  A    between atoms: _22  and  _24
REMARK   10  A    between atoms: _24  and  _25
REMARK   11  A    between atoms: _24  and  _27
REMARK   12  A    between atoms: _27  and  _28
REMARK   13  A    between atoms: _31  and  _33
REMARK   14  A    between atoms: _33  and  _34
REMARK   15  A    between atoms: _33  and  _36
REMARK   16  A    between atoms: _36  and  _37
REMARK   17  A    between atoms: _37  and  _38
REMARK   18  A    between atoms: _41  and  _43
REMARK   19  A    between atoms: _43  and  _44
REMARK   20  A    between atoms: _43  and  _46
REMARK   21  A    between atoms: _46  and  _47
REMARK   22  A    between atoms: _50  and  _52
REMARK   23  A    between atoms: _52  and  _53
REMARK   24  A    between atoms: _52  and  _55
REMARK   25  A    between atoms: _55  and  _56
REMARK   26  A    between atoms: _59  and  _61
REMARK   27  A    between atoms: _61  and  _62
REMARK   28  A    between atoms: _61  and  _64
REMARK   29  A    between atoms: _64  and  _65
REMARK   30  A    between atoms: _67  and  _69
REMARK   31  A    between atoms: _69  and  _70
REMARK   32  A    between atoms: _69  and  _72
REMARK   33  A    between atoms: _72  and  _73
REMARK   34  A    between atoms: _78  and  _80
REMARK   35  A    between atoms: _80  and  _81
REMARK   36  A    between atoms: _80  and  _83
REMARK   37  A    between atoms: _83  and  _84
REMARK   38  A    between atoms: _86  and  _88
REMARK   39  A    between atoms: _88  and  _89
REMARK   40  A    between atoms: _88  and  _91
REMARK   41  A    between atoms: _91  and  _92
REMARK   42  A    between atoms: _94  and  _96
REMARK   43  A    between atoms: _96  and  _97
REMARK   44  A    between atoms: _96  and  _99
REMARK   45  A    between atoms: _99  and  _100
REMARK   46  A    between atoms: _103  and  _105
REMARK   47  A    between atoms: _105  and  _106
REMARK   48  A    between atoms: _109  and  _111
REMARK   49  A    between atoms: _111  and  _112
REMARK   50  A    between atoms: _111  and  _114
REMARK   51  A    between atoms: _114  and  _115
REMARK   52  A    between atoms: _118  and  _120
REMARK   53  A    between atoms: _120  and  _121
REMARK   54  A    between atoms: _120  and  _123
REMARK   55  A    between atoms: _123  and  _124
REMARK   56  A    between atoms: _124  and  _125
REMARK   57  A    between atoms: _125  and  _126
REMARK   58  A    between atoms: _126  and  _127
REMARK   59  A    between atoms: _131  and  _133
REMARK   60  A    between atoms: _133  and  _134
REMARK   61  A    between atoms: _133  and  _136
REMARK   62  A    between atoms: _136  and  _137
REMARK   63  A    between atoms: _140  and  _142
REMARK   64  A    between atoms: _142  and  _143
REMARK   65  A    between atoms: _142  and  _145
REMARK   66  A    between atoms: _148  and  _150
REMARK   67  A    between atoms: _150  and  _151
REMARK   68  A    between atoms: _150  and  _153
REMARK   69  A    between atoms: _153  and  _154
REMARK   70  A    between atoms: _157  and  _159
REMARK   71  A    between atoms: _159  and  _160
REMARK   72  A    between atoms: _159  and  _162
REMARK   73  A    between atoms: _162  and  _163
REMARK   74  A    between atoms: _166  and  _168
REMARK   75  A    between atoms: _168  and  _169
REMARK   76  A    between atoms: _171  and  _173
REMARK   77  A    between atoms: _173  and  _174
REMARK   78  A    between atoms: _173  and  _176
REMARK   79  A    between atoms: _176  and  _177
REMARK   80  A    between atoms: _180  and  _182
REMARK   81  A    between atoms: _182  and  _183
REMARK   82  A    between atoms: _185  and  _187
REMARK   83  A    between atoms: _187  and  _188
REMARK   84  A    between atoms: _187  and  _190
REMARK   85  A    between atoms: _190  and  _191
REMARK   86  A    between atoms: _191  and  _192
REMARK   87  A    between atoms: _194  and  _196
REMARK   88  A    between atoms: _196  and  _197
REMARK   89  A    between atoms: _196  and  _199
REMARK   90  A    between atoms: _199  and  _200
REMARK   91  A    between atoms: _203  and  _205
REMARK   92  A    between atoms: _205  and  _206
REMARK   93  A    between atoms: _205  and  _208
REMARK   94  A    between atoms: _208  and  _209
REMARK   95  A    between atoms: _209  and  _210
REMARK   96  A    between atoms: _210  and  _211
REMARK   97  A    between atoms: _211  and  _212
REMARK   98  A    between atoms: _216  and  _218
REMARK   99  A    between atoms: _218  and  _219
REMARK  100  A    between atoms: _222  and  _224
REMARK  101  A    between atoms: _224  and  _225
REMARK  102  A    between atoms: _224  and  _227
REMARK  103  A    between atoms: _227  and  _228
REMARK  104  A    between atoms: _231  and  _233
REMARK  105  A    between atoms: _233  and  _234
REMARK  106  A    between atoms: _233  and  _236
REMARK  107  A    between atoms: _236  and  _237
REMARK  108  A    between atoms: _240  and  _242
REMARK  109  A    between atoms: _242  and  _243
REMARK  110  A    between atoms: _242  and  _245
REMARK  111  A    between atoms: _245  and  _246
REMARK  112  A    between atoms: _249  and  _251
REMARK  113  A    between atoms: _251  and  _252
REMARK  114  A    between atoms: _251  and  _254
REMARK  115  A    between atoms: _254  and  _255
REMARK  116  A    between atoms: _260  and  _262
REMARK  117  A    between atoms: _262  and  _263
REMARK  118  A    between atoms: _262  and  _265
REMARK  119  A    between atoms: _265  and  _266
REMARK  120  A    between atoms: _271  and  _273
REMARK  121  A    between atoms: _273  and  _274
REMARK  122  A    between atoms: _273  and  _276
REMARK  123  A    between atoms: _276  and  _277
REMARK  124  A    between atoms: _280  and  _282
REMARK  125  A    between atoms: _282  and  _283
REMARK  126  A    between atoms: _285  and  _287
REMARK  127  A    between atoms: _287  and  _288
REMARK  128  A    between atoms: _287  and  _290
REMARK  129  A    between atoms: _290  and  _291
REMARK  130  A    between atoms: _294  and  _296
REMARK  131  A    between atoms: _296  and  _297
REMARK  132  A    between atoms: _296  and  _299
REMARK  133  A    between atoms: _299  and  _300
REMARK  134  A    between atoms: _303  and  _305
REMARK  135  A    between atoms: _305  and  _306
REMARK  136  A    between atoms: _309  and  _311
REMARK  137  A    between atoms: _311  and  _312
REMARK  138  A    between atoms: _311  and  _314
REMARK  139  A    between atoms: _314  and  _315
REMARK  140  A    between atoms: _315  and  _316
REMARK  141  A    between atoms: _316  and  _317
REMARK  142  A    between atoms: _317  and  _318
REMARK  143  A    between atoms: _322  and  _324
REMARK  144  A    between atoms: _324  and  _325
REMARK  145  A    between atoms: _327  and  _329
REMARK  146  A    between atoms: _329  and  _330
REMARK  147  A    between atoms: _329  and  _332
REMARK  148  A    between atoms: _332  and  _333
REMARK  149  A    between atoms: _336  and  _338
REMARK  150  A    between atoms: _338  and  _339
REMARK  151  A    between atoms: _341  and  _343
REMARK  152  A    between atoms: _343  and  _344
REMARK  153  A    between atoms: _343  and  _346
REMARK  154  A    between atoms: _346  and  _347
REMARK  155  A    between atoms: _353  and  _355
REMARK  156  A    between atoms: _355  and  _356
REMARK  157  A    between atoms: _358  and  _360
REMARK  158  A    between atoms: _360  and  _361
REMARK  159  A    between atoms: _360  and  _363
REMARK  160  A    between atoms: _366  and  _368
REMARK  161  A    between atoms: _368  and  _369
REMARK  162  A    between atoms: _371  and  _373
REMARK  163  A    between atoms: _373  and  _374
REMARK  164  A    between atoms: _373  and  _376
REMARK  165  A    between atoms: _376  and  _377
REMARK  166  A    between atoms: _383  and  _385
REMARK  167  A    between atoms: _385  and  _386
REMARK  168  A    between atoms: _385  and  _388
REMARK  169  A    between atoms: _388  and  _389
REMARK  170  A    between atoms: _394  and  _395
REMARK  171  A    between atoms: _397  and  _399
REMARK  172  A    between atoms: _399  and  _400
REMARK  173  A    between atoms: _399  and  _402
REMARK  174  A    between atoms: _402  and  _403
REMARK  175  A    between atoms: _408  and  _409
REMARK  176  A    between atoms: _411  and  _413
REMARK  177  A    between atoms: _413  and  _414
REMARK  178  A    between atoms: _413  and  _416
REMARK  179  A    between atoms: _419  and  _421
REMARK  180  A    between atoms: _421  and  _422
REMARK  181  A    between atoms: _421  and  _424
REMARK  182  A    between atoms: _424  and  _425
REMARK  183  A    between atoms: _428  and  _430
REMARK  184  A    between atoms: _430  and  _431
REMARK  185  A    between atoms: _430  and  _433
REMARK  186  A    between atoms: _436  and  _438
REMARK  187  A    between atoms: _438  and  _439
REMARK  188  A    between atoms: _438  and  _441
REMARK  189  A    between atoms: _441  and  _442
REMARK  190  A    between atoms: _445  and  _447
REMARK  191  A    between atoms: _447  and  _448
REMARK  192  A    between atoms: _447  and  _450
REMARK  193  A    between atoms: _450  and  _451
REMARK  194  A    between atoms: _454  and  _456
REMARK  195  A    between atoms: _456  and  _457
REMARK  196  A    between atoms: _456  and  _459
REMARK  197  A    between atoms: _459  and  _460
REMARK  198  A    between atoms: _460  and  _461
REMARK  199  A    between atoms: _461  and  _462
REMARK  200  A    between atoms: _462  and  _463
REMARK  201  A    between atoms: _467  and  _469
REMARK  202  A    between atoms: _469  and  _470
REMARK  203  A    between atoms: _469  and  _472
REMARK  204  A    between atoms: _472  and  _473
REMARK  205  A    between atoms: _483  and  _485
REMARK  206  A    between atoms: _485  and  _486
REMARK  207  A    between atoms: _485  and  _488
REMARK  208  A    between atoms: _488  and  _489
REMARK  209  A    between atoms: _489  and  _490
REMARK  210  A    between atoms: _493  and  _495
REMARK  211  A    between atoms: _495  and  _496
REMARK  212  A    between atoms: _495  and  _498
REMARK  213  A    between atoms: _498  and  _499
REMARK  214  A    between atoms: _501  and  _503
REMARK  215  A    between atoms: _503  and  _504
REMARK  216  A    between atoms: _503  and  _506
REMARK  217  A    between atoms: _506  and  _507
REMARK  218  A    between atoms: _513  and  _515
REMARK  219  A    between atoms: _515  and  _516
REMARK  220  A    between atoms: _515  and  _518
REMARK  221  A    between atoms: _518  and  _519
REMARK  222  A    between atoms: _522  and  _524
REMARK  223  A    between atoms: _524  and  _525
REMARK  224  A    between atoms: _524  and  _527
REMARK  225  A    between atoms: _530  and  _532
REMARK  226  A    between atoms: _532  and  _533
REMARK  227  A    between atoms: _535  and  _537
REMARK  228  A    between atoms: _537  and  _538
REMARK  229  A    between atoms: _537  and  _540
REMARK  230  A    between atoms: _540  and  _541
REMARK  231  A    between atoms: _544  and  _546
REMARK  232  A    between atoms: _546  and  _547
REMARK  233  A    between atoms: _546  and  _549
REMARK  234  A    between atoms: _549  and  _550
REMARK  235  A    between atoms: _550  and  _551
REMARK  236  A    between atoms: _551  and  _552
REMARK  237  A    between atoms: _552  and  _553
REMARK  238  A    between atoms: _557  and  _559
REMARK  239  A    between atoms: _559  and  _560
REMARK  240  A    between atoms: _559  and  _562
REMARK                            x       y       z     vdW  Elec       q    Type
REMARK                         _______ _______ _______ _____ _____    ______ ____
ROOT
ATOM      1  CG  LYS A   1      -2.342  -2.529 -28.250  0.00  0.00    -0.000 C 
ENDROOT
BRANCH   1   2
ATOM      2  CB  LYS A   1      -3.477  -3.135 -29.130  0.00  0.00    +0.025 C 
BRANCH   2   3
ATOM      3  CA  LYS A   1      -4.785  -2.315 -29.027  0.00  0.00    +0.133 C 
BRANCH   3   4
ATOM      4  N   LYS A   1      -5.426  -2.482 -27.719  0.00  0.00    -0.239 NA
ATOM      5  H   LYS A   1      -5.091  -3.238 -27.088  0.00  0.00    +0.142 HD
ENDBRANCH   3   4
BRANCH   3   6
ATOM      6  C   LYS A   1      -5.690  -2.609 -30.199  0.00  0.00    +0.224 C 
ATOM      7  O   LYS A   1      -5.757  -1.795 -31.139  0.00  0.00    -0.287 OA
ENDBRANCH   3   6
ENDBRANCH   2   3
ENDBRANCH   1   2
BRANCH   1   8
ATOM      8  CD  LYS A   1      -1.072  -3.454 -28.282  0.00  0.00    -0.024 C 
BRANCH   8   9
ATOM      9  CE  LYS A   1      -0.128  -3.136 -27.129  0.00  0.00    -0.086 C 
BRANCH   9  10
ATOM     10  NZ  LYS A   1       1.042  -4.056 -27.111  0.00  0.00    +0.380 N 
ATOM     11  HZ1 LYS A   1       1.663  -3.810 -26.313  0.00  0.00    -0.089 HD
ATOM     12  HZ2 LYS A   1       0.710  -5.036 -27.004  0.00  0.00    -0.089 HD
ATOM     13  HZ3 LYS A   1       1.568  -3.963 -28.003  0.00  0.00    -0.089 HD
ENDBRANCH   9  10
ENDBRANCH   8   9
ENDBRANCH   1   8
TORSDOF 7
REMARK  Name = ../refined-set-2016/4o04/4o04_pocket.pdb
REMARK  240 active torsions:
REMARK  status: ('A' for Active; 'I' for Inactive)
REMARK    1  A    between atoms: _1  and  _3
REMARK    2  A    between atoms: _3  and  _4
REMARK    3  A    between atoms: _3  and  _6
REMARK    4  A    between atoms: _6  and  _7
REMARK    5  A    between atoms: _13  and  _15
REMARK    6  A    between atoms: _15  and  _16
REMARK    7  A    between atoms: _15  and  _18
REMARK    8  A    between atoms: _18  and  _19
REMARK    9  A    between atoms: _22  and  _24
REMARK   10  A    between atoms: _24  and  _25
REMARK   11  A    between atoms: _24  and  _27
REMARK   12  A    between atoms: _27  and  _28
REMARK   13  A    between atoms: _31  and  _33
REMARK   14  A    between atoms: _33  and  _34
REMARK   15  A    between atoms: _33  and  _36
REMARK   16  A    between atoms: _36  and  _37
REMARK   17  A    between atoms: _37  and  _38
REMARK   18  A    between atoms: _41  and  _43
REMARK   19  A    between atoms: _43  and  _44
REMARK   20  A    between atoms: _43  and  _46
REMARK   21  A    between atoms: _46  and  _47
REMARK   22  A    between atoms: _50  and  _52
REMARK   23  A    between atoms: _52  and  _53
REMARK   24  A    between atoms: _52  and  _55
REMARK   25  A    between atoms: _55  and  _56
REMARK   26  A    between atoms: _59  and  _61
REMARK   27  A    between atoms: _61  and  _62
REMARK   28  A    between atoms: _61  and  _64
REMARK   29  A    between atoms: _64  and  _65
REMARK   30  A    between atoms: _67  and  _69
REMARK   31  A    between atoms: _69  and  _70
REMARK   32  A    between atoms: _69  and  _72
REMARK   33  A    between atoms: _72  and  _73
REMARK   34  A    between atoms: _78  and  _80
REMARK   35  A    between atoms: _80  and  _81
REMARK   36  A    between atoms: _80  and  _83
REMARK   37  A    between atoms: _83  and  _84
REMARK   38  A    between atoms: _86  and  _88
REMARK   39  A    between atoms: _88  and  _89
REMARK   40  A    between atoms: _88  and  _91
REMARK   41  A    between atoms: _91  and  _92
REMARK   42  A    between atoms: _94  and  _96
REMARK   43  A    between atoms: _96  and  _97
REMARK   44  A    between atoms: _96  and  _99
REMARK   45  A    between atoms: _99  and  _100
REMARK   46  A    between atoms: _103  and  _105
REMARK   47  A    between atoms: _105  and  _106
REMARK   48  A    between atoms: _109  and  _111
REMARK   49  A    between atoms: _111  and  _112
REMARK   50  A    between atoms: _111  and  _114
REMARK   51  A    between atoms: _114  and  _115
REMARK   52  A    between atoms: _118  and  _120
REMARK   53  A    between atoms: _120  and  _121
REMARK   54  A    between atoms: _120  and  _123
REMARK   55  A    between atoms: _123  and  _124
REMARK   56  A    between atoms: _124  and  _125
REMARK   57  A    between atoms: _125  and  _126
REMARK   58  A    between atoms: _126  and  _127
REMARK   59  A    between atoms: _131  and  _133
REMARK   60  A    between atoms: _133  and  _134
REMARK   61  A    between atoms: _133  and  _136
REMARK   62  A    between atoms: _136  and  _137
REMARK   63  A    between atoms: _140  and  _142
REMARK   64  A    between atoms: _142  and  _143
REMARK   65  A    between atoms: _142  and  _145
REMARK   66  A    between atoms: _148  and  _150
REMARK   67  A    between atoms: _150  and  _151
REMARK   68  A    between atoms: _150  and  _153
REMARK   69  A    between atoms: _153  and  _154
REMARK   70  A    between atoms: _157  and  _159
REMARK   71  A    between atoms: _159  and  _160
REMARK   72  A    between atoms: _159  and  _162
REMARK   73  A    between atoms: _162  and  _163
REMARK   74  A    between atoms: _166  and  _168
REMARK   75  A    between atoms: _168  and  _169
REMARK   76  A    between atoms: _171  and  _173
REMARK   77  A    between atoms: _173  and  _174
REMARK   78  A    between atoms: _173  and  _176
REMARK   79  A    between atoms: _176  and  _177
REMARK   80  A    between atoms: _180  and  _182
REMARK   81  A    between atoms: _182  and  _183
REMARK   82  A    between atoms: _185  and  _187
REMARK   83  A    between atoms: _187  and  _188
REMARK   84  A    between atoms: _187  and  _190
REMARK   85  A    between atoms: _190  and  _191
REMARK   86  A    between atoms: _191  and  _192
REMARK   87  A    between atoms: _194  and  _196
REMARK   88  A    between atoms: _196  and  _197
REMARK   89  A    between atoms: _196  and  _199
REMARK   90  A    between atoms: _199  and  _200
REMARK   91  A    between atoms: _203  and  _205
REMARK   92  A    between atoms: _205  and  _206
REMARK   93  A    between atoms: _205  and  _208
REMARK   94  A    between atoms: _208  and  _209
REMARK   95  A    between atoms: _209  and  _210
REMARK   96  A    between atoms: _210  and  _211
REMARK   97  A    between atoms: _211  and  _212
REMARK   98  A    between atoms: _216  and  _218
REMARK   99  A    between atoms: _218  and  _219
REMARK  100  A    between atoms: _222  and  _224
REMARK  101  A    between atoms: _224  and  _225
REMARK  102  A    between atoms: _224  and  _227
REMARK  103  A    between atoms: _227  and  _228
REMARK  104  A    between atoms: _231  and  _233
REMARK  105  A    between atoms: _233  and  _234
REMARK  106  A    between atoms: _233  and  _236
REMARK  107  A    between atoms: _236  and  _237
REMARK  108  A    between atoms: _240  and  _242
REMARK  109  A    between atoms: _242  and  _243
REMARK  110  A    between atoms: _242  and  _245
REMARK  111  A    between atoms: _245  and  _246
REMARK  112  A    between atoms: _249  and  _251
REMARK  113  A    between atoms: _251  and  _252
REMARK  114  A    between atoms: _251  and  _254
REMARK  115  A    between atoms: _254  and  _255
REMARK  116  A    between atoms: _260  and  _262
REMARK  117  A    between atoms: _262  and  _263
REMARK  118  A    between atoms: _262  and  _265
REMARK  119  A    between atoms: _265  and  _266
REMARK  120  A    between atoms: _271  and  _273
REMARK  121  A    between atoms: _273  and  _274
REMARK  122  A    between atoms: _273  and  _276
REMARK  123  A    between atoms: _276  and  _277
REMARK  124  A    between atoms: _280  and  _282
REMARK  125  A    between atoms: _282  and  _283
REMARK  126  A    between atoms: _285  and  _287
REMARK  127  A    between atoms: _287  and  _288
REMARK  128  A    between atoms: _287  and  _290
REMARK  129  A    between atoms: _290  and  _291
REMARK  130  A    between atoms: _294  and  _296
REMARK  131  A    between atoms: _296  and  _297
REMARK  132  A    between atoms: _296  and  _299
REMARK  133  A    between atoms: _299  and  _300
REMARK  134  A    between atoms: _303  and  _305
REMARK  135  A    between atoms: _305  and  _306
REMARK  136  A    between atoms: _309  and  _311
REMARK  137  A    between atoms: _311  and  _312
REMARK  138  A    between atoms: _311  and  _314
REMARK  139  A    between atoms: _314  and  _315
REMARK  140  A    between atoms: _315  and  _316
REMARK  141  A    between atoms: _316  and  _317
REMARK  142  A    between atoms: _317  and  _318
REMARK  143  A    between atoms: _322  and  _324
REMARK  144  A    between atoms: _324  and  _325
REMARK  145  A    between atoms: _327  and  _329
REMARK  146  A    between atoms: _329  and  _330
REMARK  147  A    between atoms: _329  and  _332
REMARK  148  A    between atoms: _332  and  _333
REMARK  149  A    between atoms: _336  and  _338
REMARK  150  A    between atoms: _338  and  _339
REMARK  151  A    between atoms: _341  and  _343
REMARK  152  A    between atoms: _343  and  _344
REMARK  153  A    between atoms: _343  and  _346
REMARK  154  A    between atoms: _346  and  _347
REMARK  155  A    between atoms: _353  and  _355
REMARK  156  A    between atoms: _355  and  _356
REMARK  157  A    between atoms: _358  and  _360
REMARK  158  A    between atoms: _360  and  _361
REMARK  159  A    between atoms: _360  and  _363
REMARK  160  A    between atoms: _366  and  _368
REMARK  161  A    between atoms: _368  and  _369
REMARK  162  A    between atoms: _371  and  _373
REMARK  163  A    between atoms: _373  and  _374
REMARK  164  A    between atoms: _373  and  _376
REMARK  165  A    between atoms: _376  and  _377
REMARK  166  A    between atoms: _383  and  _385
REMARK  167  A    between atoms: _385  and  _386
REMARK  168  A    between atoms: _385  and  _388
REMARK  169  A    between atoms: _388  and  _389
REMARK  170  A    between atoms: _394  and  _395
REMARK  171  A    between atoms: _397  and  _399
REMARK  172  A    between atoms: _399  and  _400
REMARK  173  A    between atoms: _399  and  _402
REMARK  174  A    between atoms: _402  and  _403
REMARK  175  A    between atoms: _408  and  _409
REMARK  176  A    between atoms: _411  and  _413
REMARK  177  A    between atoms: _413  and  _414
REMARK  178  A    between atoms: _413  and  _416
REMARK  179  A    between atoms: _419  and  _421
REMARK  180  A    between atoms: _421  and  _422
REMARK  181  A    between atoms: _421  and  _424
REMARK  182  A    between atoms: _424  and  _425
REMARK  183  A    between atoms: _428  and  _430
REMARK  184  A    between atoms: _430  and  _431
REMARK  185  A    between atoms: _430  and  _433
REMARK  186  A    between atoms: _436  and  _438
REMARK  187  A    between atoms: _438  and  _439
REMARK  188  A    between atoms: _438  and  _441
REMARK  189  A    between atoms: _441  and  _442
REMARK  190  A    between atoms: _445  and  _447
REMARK  191  A    between atoms: _447  and  _448
REMARK  192  A    between atoms: _447  and  _450
REMARK  193  A    between atoms: _450  and  _451
REMARK  194  A    between atoms: _454  and  _456
REMARK  195  A    between atoms: _456  and  _457
REMARK  196  A    between atoms: _456  and  _459
REMARK  197  A    between atoms: _459  and  _460
REMARK  198  A    between atoms: _460  and  _461
REMARK  199  A    between atoms: _461  and  _462
REMARK  200  A    between atoms: _462  and  _463
REMARK  201  A    between atoms: _467  and  _469
REMARK  202  A    between atoms: _469  and  _470
REMARK  203  A    between atoms: _469  and  _472
REMARK  204  A    between atoms: _472  and  _473
REMARK  205  A    between atoms: _483  and  _485
REMARK  206  A    between atoms: _485  and  _486
REMARK  207  A    between atoms: _485  and  _488
REMARK  208  A    between atoms: _488  and  _489
REMARK  209  A    between atoms: _489  and  _490
REMARK  210  A    between atoms: _493  and  _495
REMARK  211  A    between atoms: _495  and  _496
REMARK  212  A    between atoms: _495  and  _498
REMARK  213  A    between atoms: _498  and  _499
REMARK  214  A    between atoms: _501  and  _503
REMARK  215  A    between atoms: _503  and  _504
REMARK  216  A    between atoms: _503  and  _506
REMARK  217  A    between atoms: _506  and  _507
REMARK  218  A    between atoms: _513  and  _515
REMARK  219  A    between atoms: _515  and  _516
REMARK  220  A    between atoms: _515  and  _518
REMARK  221  A    between atoms: _518  and  _519
REMARK  222  A    between atoms: _522  and  _524
REMARK  223  A    between atoms: _524  and  _525
REMARK  224  A    between atoms: _524  and  _527
REMARK  225  A    between atoms: _530  and  _532
REMARK  226  A    between atoms: _532  and  _533
REMARK  227  A    between atoms: _535  and  _537
REMARK  228  A    between atoms: _537  and  _538
REMARK  229  A    between atoms: _537  and  _540
REMARK  230  A    between atoms: _540  and  _541
REMARK  231  A    between atoms: _544  and  _546
REMARK  232  A    between atoms: _546  and  _547
REMARK  233  A    between atoms: _546  and  _549
REMARK  234  A    between atoms: _549  and  _550
REMARK  235  A    between atoms: _550  and  _551
REMARK  236  A    between atoms: _551  and  _552
REMARK  237  A    between atoms: _552  and  _553
REMARK  238  A    between atoms: _557  and  _559
REMARK  239  A    between atoms: _559  and  _560
REMARK  240  A    between atoms: _559  and  _562
REMARK                            x       y       z     vdW  Elec       q    Type
REMARK                         _______ _______ _______ _____ _____    ______ ____
ROOT
ATOM      1  CA  ASP A  12       6.379 -10.922 -32.278  0.00  0.00    +0.160 C 
ENDROOT
BRANCH   1   4
ATOM      2  C   ALA A  11       7.794 -11.573 -34.233  0.00  0.00    +0.241 C 
ATOM      3  O   ALA A  11       8.835 -11.520 -33.561  0.00  0.00    -0.273 OA
ATOM      4  N   ASP A  12       6.559 -11.250 -33.728  0.00  0.00    -0.297 N 
ATOM      5  H   ASP A  12       5.735 -11.233 -34.363  0.00  0.00    +0.150 HD
BRANCH   2   6
ATOM      6  CA  ALA A  11       7.873 -11.991 -35.730  0.00  0.00    +0.149 C 
ATOM      7  CB  ALA A  11       7.816 -10.762 -36.616  0.00  0.00    +0.031 C 
BRANCH   6  10
ATOM      8  C   LYS A  10       6.593 -14.150 -35.413  0.00  0.00    +0.241 C 
ATOM      9  O   LYS A  10       7.336 -14.561 -34.510  0.00  0.00    -0.273 OA
ATOM     10  N   ALA A  11       6.773 -12.948 -36.053  0.00  0.00    -0.297 N 
ATOM     11  H   ALA A  11       6.104 -12.689 -36.806  0.00  0.00    +0.150 HD
BRANCH   8  12
ATOM     12  CA  LYS A  10       5.365 -15.016 -35.821  0.00  0.00    +0.149 C 
BRANCH  12  15
ATOM     13  C   THR A   9       3.710 -13.380 -34.990  0.00  0.00    +0.243 C 
ATOM     14  O   THR A   9       4.219 -13.380 -33.849  0.00  0.00    -0.273 OA
ATOM     15  N   LYS A  10       4.183 -14.146 -35.985  0.00  0.00    -0.297 N 
ATOM     16  H   LYS A  10       3.699 -14.126 -36.906  0.00  0.00    +0.150 HD
BRANCH  13  17
ATOM     17  CA  THR A   9       2.532 -12.444 -35.336  0.00  0.00    +0.176 C 
BRANCH  17  20
ATOM     18  C   MET A   8       1.166 -12.541 -33.271  0.00  0.00    +0.241 C 
ATOM     19  O   MET A   8       0.672 -13.625 -33.539  0.00  0.00    -0.273 OA
ATOM     20  N   THR A   9       2.030 -11.900 -34.038  0.00  0.00    -0.295 N 
ATOM     21  H   THR A   9       2.378 -10.972 -33.723  0.00  0.00    +0.150 HD
BRANCH  18  22
ATOM     22  CA  MET A   8       0.818 -11.865 -31.971  0.00  0.00    +0.149 C 
BRANCH  22  25
ATOM     23  C   GLY A   7      -1.368 -11.013 -31.244  0.00  0.00    +0.243 C 
ATOM     24  O   GLY A   7      -0.937  -9.858 -31.080  0.00  0.00    -0.273 OA
ATOM     25  N   MET A   8      -0.604 -12.022 -31.681  0.00  0.00    -0.297 N 
ATOM     26  H   MET A   8      -1.041 -12.955 -31.819  0.00  0.00    +0.150 HD
BRANCH  23  27
ATOM     27  CA  GLY A   7      -2.809 -11.369 -30.929  0.00  0.00    +0.176 C 
BRANCH  27  29
ATOM     28  C   ILE A   6      -4.036  -9.359 -31.570  0.00  0.00    +0.241 C 
ATOM     29  N   GLY A   7      -3.580 -10.173 -30.604  0.00  0.00    -0.295 N 
ATOM     30  H   GLY A   7      -3.779  -9.948 -29.609  0.00  0.00    +0.150 HD
ATOM     31  O   ILE A   6      -3.793  -9.521 -32.764  0.00  0.00    -0.273 OA
BRANCH  28  32
ATOM     32  CA  ILE A   6      -4.837  -8.083 -31.143  0.00  0.00    +0.149 C 
BRANCH  32  34
ATOM     33  C   GLY A   5      -6.432  -9.133 -29.569  0.00  0.00    +0.243 C 
ATOM     34  N   ILE A   6      -5.492  -8.202 -29.829  0.00  0.00    -0.297 N 
ATOM     35  H   ILE A   6      -5.219  -7.542 -29.073  0.00  0.00    +0.150 HD
ATOM     36  O   GLY A   5      -6.778  -9.993 -30.402  0.00  0.00    -0.273 OA
BRANCH  33  37
ATOM     37  CA  GLY A   5      -7.051  -9.058 -28.171  0.00  0.00    +0.176 C 
BRANCH  37  39
ATOM     38  C   THR A   4      -9.092 -10.404 -28.457  0.00  0.00    +0.243 C 
ATOM     39  N   GLY A   5      -7.894 -10.215 -27.881  0.00  0.00    -0.295 N 
ATOM     40  H   GLY A   5      -7.552 -10.922 -27.200  0.00  0.00    +0.150 HD
ATOM     41  O   THR A   4      -9.570  -9.598 -29.274  0.00  0.00    -0.273 OA
BRANCH  38  42
ATOM     42  CA  THR A   4      -9.805 -11.725 -28.071  0.00  0.00    +0.176 C 
BRANCH  42  44
ATOM     43  C   ASP A   3      -8.700 -13.001 -26.268  0.00  0.00    +0.241 C 
ATOM     44  N   THR A   4      -9.488 -12.026 -26.661  0.00  0.00    -0.295 N 
ATOM     45  H   THR A   4      -9.918 -11.425 -25.929  0.00  0.00    +0.150 HD
ATOM     46  O   ASP A   3      -8.172 -13.818 -27.033  0.00  0.00    -0.273 OA
BRANCH  43  47
ATOM     47  CA  ASP A   3      -8.429 -13.066 -24.759  0.00  0.00    +0.160 C 
BRANCH  47  50
ATOM     48  C   VAL A   2      -8.404 -15.072 -23.390  0.00  0.00    +0.241 C 
ATOM     49  O   VAL A   2      -9.207 -14.589 -22.601  0.00  0.00    -0.273 OA
ATOM     50  N   ASP A   3      -7.948 -14.403 -24.458  0.00  0.00    -0.297 N 
ATOM     51  H   ASP A   3      -7.241 -14.847 -25.079  0.00  0.00    +0.150 HD
BRANCH  48  52
ATOM     52  CA  VAL A   2      -7.948 -16.524 -23.211  0.00  0.00    +0.148 C 
BRANCH  52  54
ATOM     53  C   ILE A   1      -6.378 -17.023 -21.400  0.00  0.00    +0.238 C 
ATOM     54  N   VAL A   2      -7.628 -16.773 -21.809  0.00  0.00    -0.297 N 
ATOM     55  H   VAL A   2      -8.394 -16.756 -21.106  0.00  0.00    +0.150 HD
ATOM     56  O   ILE A   1      -5.406 -17.023 -22.154  0.00  0.00    -0.274 OA
BRANCH  53  57
ATOM     57  CA  ILE A   1      -6.184 -17.297 -19.886  0.00  0.00    +0.145 C 
BRANCH  57  58
ATOM     58  CB  ILE A   1      -5.160 -16.292 -19.234  0.00  0.00    +0.025 C 
ATOM     59  CG2 ILE A   1      -5.581 -14.851 -19.447  0.00  0.00    +0.002 C 
BRANCH  58  60
ATOM     60  CG1 ILE A   1      -4.932 -16.575 -17.715  0.00  0.00    +0.002 C 
ATOM     61  CD1 ILE A   1      -3.890 -17.770 -17.407  0.00  0.00    +0.000 C 
ENDBRANCH  58  60
ENDBRANCH  57  58
BRANCH  57  62
ATOM     62  N   ILE A   1      -5.763 -18.708 -19.853  0.00  0.00    -0.238 NA
ATOM     63  H   ILE A   1      -4.831 -18.944 -20.249  0.00  0.00    +0.142 HD
ENDBRANCH  57  62
ENDBRANCH  53  57
ENDBRANCH  52  54
BRANCH  52  64
ATOM     64  CB  VAL A   2      -9.106 -17.458 -23.709  0.00  0.00    +0.027 C 
ATOM     65  CG2 VAL A   2      -8.879 -18.927 -23.397  0.00  0.00    +0.002 C 
ATOM     66  CG1 VAL A   2      -9.403 -17.262 -25.201  0.00  0.00    +0.002 C 
ENDBRANCH  52  64
ENDBRANCH  48  52
ENDBRANCH  47  50
BRANCH  47  67
ATOM     67  CB  ASP A   3      -7.499 -11.943 -24.290  0.00  0.00    +0.143 C 
BRANCH  67  68
ATOM     68  CG  ASP A   3      -6.149 -11.896 -25.005  0.00  0.00    +0.367 C 
ATOM     69  OD2 ASP A   3      -5.110 -12.215 -24.353  0.00  0.00    -0.246 OA
ATOM     70  OD1 ASP A   3      -6.135 -11.630 -26.232  0.00  0.00    -0.246 OA
ENDBRANCH  67  68
ENDBRANCH  47  67
ENDBRANCH  43  47
ENDBRANCH  42  44
BRANCH  42  71
ATOM     71  CB  THR A   4     -11.305 -11.771 -28.315  0.00  0.00    +0.137 C 
ATOM     72  CG2 THR A   4     -11.896 -13.227 -28.121  0.00  0.00    +0.034 C 
BRANCH  71  73
ATOM     73  OG1 THR A   4     -11.905 -10.849 -27.392  0.00  0.00    -0.382 OA
ATOM     74  HG1 THR A   4     -12.887 -10.849 -27.519  0.00  0.00    +0.210 HD
ENDBRANCH  71  73
ENDBRANCH  42  71
ENDBRANCH  38  42
ENDBRANCH  37  39
ENDBRANCH  33  37
ENDBRANCH  32  34
BRANCH  32  75
ATOM     75  CB  ILE A   6      -3.963  -6.808 -31.185  0.00  0.00    +0.027 C 
ATOM     76  CG2 ILE A   6      -2.695  -6.937 -30.290  0.00  0.00    +0.002 C 
BRANCH  75  77
ATOM     77  CG1 ILE A   6      -3.642  -6.376 -32.680  0.00  0.00    +0.002 C 
ATOM     78  CD1 ILE A   6      -3.352  -4.840 -32.863  0.00  0.00    +0.000 C 
ENDBRANCH  75  77
ENDBRANCH  32  75
ENDBRANCH  28  32
ENDBRANCH  27  29
ENDBRANCH  23  27
ENDBRANCH  22  25
BRANCH  22  79
ATOM     79  CB  MET A   8       1.691 -12.489 -30.843  0.00  0.00    +0.041 C 
BRANCH  79  80
ATOM     80  CG  MET A   8       1.615 -11.688 -29.505  0.00  0.00    +0.060 C 
BRANCH  80  81
ATOM     81  SD  MET A   8       2.412 -12.549 -28.110  0.00  0.00    -0.139 S 
ATOM     82  CE  MET A   8       1.062 -13.647 -27.621  0.00  0.00    +0.069 C 
ENDBRANCH  80  81
ENDBRANCH  79  80
ENDBRANCH  22  79
ENDBRANCH  18  22
ENDBRANCH  17  20
BRANCH  17  83
ATOM     83  CB  THR A   9       3.081 -11.297 -36.233  0.00  0.00    +0.137 C 
ATOM     84  CG2 THR A   9       2.002 -10.226 -36.596  0.00  0.00    +0.034 C 
BRANCH  83  85
ATOM     85  OG1 THR A   9       4.185 -10.699 -35.539  0.00  0.00    -0.382 OA
ATOM     86  HG1 THR A   9       4.557  -9.963 -36.086  0.00  0.00    +0.210 HD
ENDBRANCH  83  85
ENDBRANCH  17  83
ENDBRANCH  13  17
ENDBRANCH  12  15
BRANCH  12  87
ATOM     87  CB  LYS A  10       5.651 -15.756 -37.159  0.00  0.00    +0.029 C 
BRANCH  87  88
ATOM     88  CG  LYS A  10       6.454 -17.031 -36.922  0.00  0.00    +0.000 C 
BRANCH  88  89
ATOM     89  CD  LYS A  10       6.917 -17.659 -38.275  0.00  0.00    -0.024 C 
BRANCH  89  90
ATOM     90  CE  LYS A  10       7.657 -18.964 -38.013  0.00  0.00    -0.086 C 
BRANCH  90  91
ATOM     91  NZ  LYS A  10       8.246 -19.572 -39.264  0.00  0.00    +0.380 N 
ATOM     92  HZ1 LYS A  10       8.736 -20.457 -39.021  0.00  0.00    -0.089 HD
ATOM     93  HZ2 LYS A  10       8.922 -18.905 -39.687  0.00  0.00    -0.089 HD
ATOM     94  HZ3 LYS A  10       7.484 -19.772 -39.943  0.00  0.00    -0.089 HD
ENDBRANCH  90  91
ENDBRANCH  89  90
ENDBRANCH  88  89
ENDBRANCH  87  88
ENDBRANCH  12  87
ENDBRANCH   8  12
ENDBRANCH   6  10
ENDBRANCH   2   6
ENDBRANCH   1   4
BRANCH   1  95
ATOM     95  C   ASP A  12       6.885 -12.076 -31.402  0.00  0.00    +0.241 C 
ATOM     96  O   ASP A  12       7.635 -11.859 -30.436  0.00  0.00    -0.273 OA
ATOM     97  N   LEU A  13       6.443 -13.320 -31.732  0.00  0.00    -0.297 N 
ATOM     98  H   LEU A  13       5.827 -13.433 -32.563  0.00  0.00    +0.150 HD
BRANCH  97  99
ATOM     99  CA  LEU A  13       6.811 -14.511 -30.947  0.00  0.00    +0.149 C 
BRANCH  99 100
ATOM    100  C   LEU A  13       8.264 -14.860 -30.936  0.00  0.00    +0.241 C 
ATOM    101  O   LEU A  13       8.754 -15.249 -29.870  0.00  0.00    -0.273 OA
ATOM    102  N   ILE A  14       8.948 -14.775 -32.096  0.00  0.00    -0.297 N 
ATOM    103  H   ILE A  14       8.461 -14.447 -32.955  0.00  0.00    +0.150 HD
BRANCH 102 104
ATOM    104  CA  ILE A  14      10.375 -15.140 -32.165  0.00  0.00    +0.149 C 
BRANCH 104 105
ATOM    105  C   ILE A  14      11.332 -14.023 -31.788  0.00  0.00    +0.241 C 
ATOM    106  O   ILE A  14      12.342 -14.288 -31.108  0.00  0.00    -0.273 OA
ATOM    107  N   ASN A  15      11.075 -12.809 -32.292  0.00  0.00    -0.297 N 
ATOM    108  H   ASN A  15      10.196 -12.643 -32.823  0.00  0.00    +0.150 HD
BRANCH 107 109
ATOM    109  CA  ASN A  15      12.026 -11.718 -32.097  0.00  0.00    +0.158 C 
BRANCH 109 110
ATOM    110  C   ASN A  15      11.607 -10.453 -31.389  0.00  0.00    +0.241 C 
ATOM    111  O   ASN A  15      12.369  -9.946 -30.535  0.00  0.00    -0.273 OA
ATOM    112  N   ASN A  16      10.485  -9.858 -31.832  0.00  0.00    -0.297 N 
ATOM    113  H   ASN A  16       9.876 -10.359 -32.510  0.00  0.00    +0.150 HD
BRANCH 112 114
ATOM    114  CA  ASN A  16      10.105  -8.518 -31.378  0.00  0.00    +0.158 C 
BRANCH 114 115
ATOM    115  C   ASN A  16       9.882  -8.391 -29.910  0.00  0.00    +0.241 C 
ATOM    116  N   LEU A  17       9.094  -9.288 -29.317  0.00  0.00    -0.297 N 
ATOM    117  H   LEU A  17       8.687 -10.073 -29.865  0.00  0.00    +0.150 HD
ATOM    118  O   ASN A  16      10.409  -7.464 -29.318  0.00  0.00    -0.273 OA
BRANCH 116 119
ATOM    119  CA  LEU A  17       8.805  -9.157 -27.876  0.00  0.00    +0.149 C 
BRANCH 119 120
ATOM    120  C   LEU A  17      10.025  -9.452 -27.025  0.00  0.00    +0.241 C 
ATOM    121  O   LEU A  17      10.257  -8.729 -26.034  0.00  0.00    -0.273 OA
ATOM    122  N   GLY A  18      10.823 -10.430 -27.451  0.00  0.00    -0.295 N 
ATOM    123  H   GLY A  18      10.525 -10.964 -28.292  0.00  0.00    +0.150 HD
BRANCH 122 124
ATOM    124  CA  GLY A  18      12.097 -10.809 -26.816  0.00  0.00    +0.176 C 
BRANCH 124 125
ATOM    125  C   GLY A  18      13.056  -9.624 -26.769  0.00  0.00    +0.243 C 
ATOM    126  O   GLY A  18      13.682  -9.397 -25.729  0.00  0.00    -0.273 OA
ATOM    127  N   THR A  19      13.152  -8.829 -27.880  0.00  0.00    -0.295 N 
ATOM    128  H   THR A  19      12.578  -9.083 -28.709  0.00  0.00    +0.150 HD
BRANCH 127 129
ATOM    129  CA  THR A  19      14.018  -7.632 -27.981  0.00  0.00    +0.176 C 
BRANCH 129 130
ATOM    130  C   THR A  19      13.590  -6.587 -26.956  0.00  0.00    +0.243 C 
ATOM    131  O   THR A  19      14.443  -6.090 -26.194  0.00  0.00    -0.273 OA
ATOM    132  N   ILE A  20      12.272  -6.296 -26.909  0.00  0.00    -0.297 N 
ATOM    133  H   ILE A  20      11.649  -6.776 -27.589  0.00  0.00    +0.150 HD
BRANCH 132 134
ATOM    134  CA  ILE A  20      11.653  -5.351 -25.968  0.00  0.00    +0.149 C 
BRANCH 134 135
ATOM    135  C   ILE A  20      11.912  -5.835 -24.526  0.00  0.00    +0.241 C 
ATOM    136  O   ILE A  20      12.301  -5.030 -23.674  0.00  0.00    -0.273 OA
ATOM    137  N   ALA A  21      11.730  -7.134 -24.280  0.00  0.00    -0.297 N 
ATOM    138  H   ALA A  21      11.443  -7.739 -25.076  0.00  0.00    +0.150 HD
BRANCH 137 139
ATOM    139  CA  ALA A  21      11.903  -7.767 -22.980  0.00  0.00    +0.149 C 
ATOM    140  CB  ALA A  21      11.416  -9.200 -23.012  0.00  0.00    +0.031 C 
BRANCH 139 141
ATOM    141  C   ALA A  21      13.340  -7.698 -22.400  0.00  0.00    +0.241 C 
ATOM    142  O   ALA A  21      13.463  -7.643 -21.175  0.00  0.00    -0.273 OA
ATOM    143  N   LYS A  22      14.405  -7.704 -23.268  0.00  0.00    -0.298 N 
ATOM    144  H   LYS A  22      14.194  -7.755 -24.285  0.00  0.00    +0.150 HD
BRANCH 143 145
ATOM    145  CA  LYS A  22      15.829  -7.644 -22.870  0.00  0.00    +0.137 C 
BRANCH 145 146
ATOM    146  C   LYS A  22      16.130  -6.398 -21.996  0.00  0.00    +0.227 C 
ATOM    147  O   LYS A  22      16.760  -6.527 -20.934  0.00  0.00    -0.286 OA
ENDBRANCH 145 146
BRANCH 145 148
ATOM    148  CB  LYS A  22      16.731  -7.715 -24.129  0.00  0.00    +0.028 C 
BRANCH 148 149
ATOM    149  CG  LYS A  22      18.220  -7.966 -23.865  0.00  0.00    -0.000 C 
BRANCH 149 150
ATOM    150  CD  LYS A  22      19.018  -8.032 -25.178  0.00  0.00    -0.024 C 
BRANCH 150 151
ATOM    151  CE  LYS A  22      20.504  -7.953 -24.907  0.00  0.00    -0.086 C 
BRANCH 151 152
ATOM    152  NZ  LYS A  22      21.312  -8.069 -26.154  0.00  0.00    +0.380 N 
ATOM    153  HZ1 LYS A  22      22.323  -8.009 -25.917  0.00  0.00    -0.089 HD
ATOM    154  HZ2 LYS A  22      21.115  -8.983 -26.610  0.00  0.00    -0.089 HD
ATOM    155  HZ3 LYS A  22      21.060  -7.296 -26.802  0.00  0.00    -0.089 HD
ENDBRANCH 151 152
ENDBRANCH 150 151
ENDBRANCH 149 150
ENDBRANCH 148 149
ENDBRANCH 145 148
ENDBRANCH 143 145
ENDBRANCH 139 141
ENDBRANCH 137 139
ENDBRANCH 134 135
BRANCH 134 156
ATOM    156  CB  ILE A  20      10.118  -5.209 -26.326  0.00  0.00    +0.027 C 
ATOM    157  CG2 ILE A  20       9.251  -4.574 -25.241  0.00  0.00    +0.002 C 
BRANCH 156 158
ATOM    158  CG1 ILE A  20       9.899  -4.499 -27.695  0.00  0.00    +0.002 C 
ATOM    159  CD1 ILE A  20      10.458  -3.036 -27.945  0.00  0.00    +0.000 C 
ENDBRANCH 156 158
ENDBRANCH 134 156
ENDBRANCH 132 134
ENDBRANCH 129 130
BRANCH 129 160
ATOM    160  CB  THR A  19      13.999  -7.076 -29.422  0.00  0.00    +0.137 C 
ATOM    161  CG2 THR A  19      14.832  -5.819 -29.585  0.00  0.00    +0.034 C 
BRANCH 160 162
ATOM    162  OG1 THR A  19      14.531  -8.096 -30.254  0.00  0.00    -0.382 OA
ATOM    163  HG1 THR A  19      13.969  -8.908 -30.180  0.00  0.00    +0.210 HD
ENDBRANCH 160 162
ENDBRANCH 129 160
ENDBRANCH 127 129
ENDBRANCH 124 125
ENDBRANCH 122 124
ENDBRANCH 119 120
BRANCH 119 164
ATOM    164  CB  LEU A  17       7.576  -9.983 -27.512  0.00  0.00    +0.029 C 
BRANCH 164 165
ATOM    165  CG  LEU A  17       6.304  -9.356 -28.176  0.00  0.00    +0.002 C 
ATOM    166  CD2 LEU A  17       5.899  -8.010 -27.546  0.00  0.00    +0.000 C 
ATOM    167  CD1 LEU A  17       5.129 -10.302 -28.105  0.00  0.00    +0.000 C 
ENDBRANCH 164 165
ENDBRANCH 119 164
ENDBRANCH 116 119
ENDBRANCH 114 115
BRANCH 114 168
ATOM    168  CB  ASN A  16       8.874  -7.911 -32.123  0.00  0.00    +0.114 C 
BRANCH 168 169
ATOM    169  CG  ASN A  16       8.827  -7.863 -33.640  0.00  0.00    +0.222 C 
ATOM    170  ND2 ASN A  16       7.582  -7.811 -34.189  0.00  0.00    -0.329 N 
ATOM    171 HD21 ASN A  16       6.742  -7.855 -33.578  0.00  0.00    +0.145 HD
ATOM    172 HD22 ASN A  16       7.471  -7.727 -35.220  0.00  0.00    +0.145 HD
ATOM    173  OD1 ASN A  16       9.846  -7.814 -34.327  0.00  0.00    -0.275 OA
ENDBRANCH 168 169
ENDBRANCH 114 168
ENDBRANCH 112 114
ENDBRANCH 109 110
BRANCH 109 174
ATOM    174  CB  ASN A  15      12.497 -11.249 -33.520  0.00  0.00    +0.114 C 
BRANCH 174 175
ATOM    175  CG  ASN A  15      13.256 -12.221 -34.397  0.00  0.00    +0.222 C 
ATOM    176  ND2 ASN A  15      14.463 -12.601 -33.985  0.00  0.00    -0.329 N 
ATOM    177 HD21 ASN A  15      14.828 -12.271 -33.069  0.00  0.00    +0.145 HD
ATOM    178 HD22 ASN A  15      15.042 -13.228 -34.579  0.00  0.00    +0.145 HD
ATOM    179  OD1 ASN A  15      12.792 -12.598 -35.486  0.00  0.00    -0.275 OA
ENDBRANCH 174 175
ENDBRANCH 109 174
ENDBRANCH 107 109
ENDBRANCH 104 105
BRANCH 104 180
ATOM    180  CB  ILE A  14      10.734 -15.711 -33.561  0.00  0.00    +0.027 C 
ATOM    181  CG2 ILE A  14      12.310 -15.915 -33.743  0.00  0.00    +0.002 C 
BRANCH 180 182
ATOM    182  CG1 ILE A  14       9.940 -17.030 -33.786  0.00  0.00    +0.002 C 
ATOM    183  CD1 ILE A  14       9.769 -17.413 -35.305  0.00  0.00    +0.000 C 
ENDBRANCH 180 182
ENDBRANCH 104 180
ENDBRANCH 102 104
ENDBRANCH  99 100
BRANCH  99 184
ATOM    184  CB  LEU A  13       6.012 -15.766 -31.387  0.00  0.00    +0.029 C 
BRANCH 184 185
ATOM    185  CG  LEU A  13       4.524 -15.743 -31.185  0.00  0.00    +0.002 C 
ATOM    186  CD2 LEU A  13       4.108 -15.838 -29.658  0.00  0.00    +0.000 C 
ATOM    187  CD1 LEU A  13       3.909 -16.937 -31.931  0.00  0.00    +0.000 C 
ENDBRANCH 184 185
ENDBRANCH  99 184
ENDBRANCH  97  99
ENDBRANCH   1  95
BRANCH   1 188
ATOM    188  CB  ASP A  12       4.869 -10.751 -31.955  0.00  0.00    +0.143 C 
BRANCH 188 189
ATOM    189  CG  ASP A  12       4.287  -9.459 -32.443  0.00  0.00    +0.367 C 
ATOM    190  OD2 ASP A  12       5.055  -8.510 -32.642  0.00  0.00    -0.246 OA
ATOM    191  OD1 ASP A  12       3.077  -9.421 -32.735  0.00  0.00    -0.246 OA
ENDBRANCH 188 189
ENDBRANCH   1 188
TORSDOF 84
REMARK  Name = ../refined-set-2016/4o04/4o04_pocket.pdb
REMARK  240 active torsions:
REMARK  status: ('A' for Active; 'I' for Inactive)
REMARK    1  A    between atoms: _1  and  _3
REMARK    2  A    between atoms: _3  and  _4
REMARK    3  A    between atoms: _3  and  _6
REMARK    4  A    between atoms: _6  and  _7
REMARK    5  A    between atoms: _13  and  _15
REMARK    6  A    between atoms: _15  and  _16
REMARK    7  A    between atoms: _15  and  _18
REMARK    8  A    between atoms: _18  and  _19
REMARK    9  A    between atoms: _22  and  _24
REMARK   10  A    between atoms: _24  and  _25
REMARK   11  A    between atoms: _24  and  _27
REMARK   12  A    between atoms: _27  and  _28
REMARK   13  A    between atoms: _31  and  _33
REMARK   14  A    between atoms: _33  and  _34
REMARK   15  A    between atoms: _33  and  _36
REMARK   16  A    between atoms: _36  and  _37
REMARK   17  A    between atoms: _37  and  _38
REMARK   18  A    between atoms: _41  and  _43
REMARK   19  A    between atoms: _43  and  _44
REMARK   20  A    between atoms: _43  and  _46
REMARK   21  A    between atoms: _46  and  _47
REMARK   22  A    between atoms: _50  and  _52
REMARK   23  A    between atoms: _52  and  _53
REMARK   24  A    between atoms: _52  and  _55
REMARK   25  A    between atoms: _55  and  _56
REMARK   26  A    between atoms: _59  and  _61
REMARK   27  A    between atoms: _61  and  _62
REMARK   28  A    between atoms: _61  and  _64
REMARK   29  A    between atoms: _64  and  _65
REMARK   30  A    between atoms: _67  and  _69
REMARK   31  A    between atoms: _69  and  _70
REMARK   32  A    between atoms: _69  and  _72
REMARK   33  A    between atoms: _72  and  _73
REMARK   34  A    between atoms: _78  and  _80
REMARK   35  A    between atoms: _80  and  _81
REMARK   36  A    between atoms: _80  and  _83
REMARK   37  A    between atoms: _83  and  _84
REMARK   38  A    between atoms: _86  and  _88
REMARK   39  A    between atoms: _88  and  _89
REMARK   40  A    between atoms: _88  and  _91
REMARK   41  A    between atoms: _91  and  _92
REMARK   42  A    between atoms: _94  and  _96
REMARK   43  A    between atoms: _96  and  _97
REMARK   44  A    between atoms: _96  and  _99
REMARK   45  A    between atoms: _99  and  _100
REMARK   46  A    between atoms: _103  and  _105
REMARK   47  A    between atoms: _105  and  _106
REMARK   48  A    between atoms: _109  and  _111
REMARK   49  A    between atoms: _111  and  _112
REMARK   50  A    between atoms: _111  and  _114
REMARK   51  A    between atoms: _114  and  _115
REMARK   52  A    between atoms: _118  and  _120
REMARK   53  A    between atoms: _120  and  _121
REMARK   54  A    between atoms: _120  and  _123
REMARK   55  A    between atoms: _123  and  _124
REMARK   56  A    between atoms: _124  and  _125
REMARK   57  A    between atoms: _125  and  _126
REMARK   58  A    between atoms: _126  and  _127
REMARK   59  A    between atoms: _131  and  _133
REMARK   60  A    between atoms: _133  and  _134
REMARK   61  A    between atoms: _133  and  _136
REMARK   62  A    between atoms: _136  and  _137
REMARK   63  A    between atoms: _140  and  _142
REMARK   64  A    between atoms: _142  and  _143
REMARK   65  A    between atoms: _142  and  _145
REMARK   66  A    between atoms: _148  and  _150
REMARK   67  A    between atoms: _150  and  _151
REMARK   68  A    between atoms: _150  and  _153
REMARK   69  A    between atoms: _153  and  _154
REMARK   70  A    between atoms: _157  and  _159
REMARK   71  A    between atoms: _159  and  _160
REMARK   72  A    between atoms: _159  and  _162
REMARK   73  A    between atoms: _162  and  _163
REMARK   74  A    between atoms: _166  and  _168
REMARK   75  A    between atoms: _168  and  _169
REMARK   76  A    between atoms: _171  and  _173
REMARK   77  A    between atoms: _173  and  _174
REMARK   78  A    between atoms: _173  and  _176
REMARK   79  A    between atoms: _176  and  _177
REMARK   80  A    between atoms: _180  and  _182
REMARK   81  A    between atoms: _182  and  _183
REMARK   82  A    between atoms: _185  and  _187
REMARK   83  A    between atoms: _187  and  _188
REMARK   84  A    between atoms: _187  and  _190
REMARK   85  A    between atoms: _190  and  _191
REMARK   86  A    between atoms: _191  and  _192
REMARK   87  A    between atoms: _194  and  _196
REMARK   88  A    between atoms: _196  and  _197
REMARK   89  A    between atoms: _196  and  _199
REMARK   90  A    between atoms: _199  and  _200
REMARK   91  A    between atoms: _203  and  _205
REMARK   92  A    between atoms: _205  and  _206
REMARK   93  A    between atoms: _205  and  _208
REMARK   94  A    between atoms: _208  and  _209
REMARK   95  A    between atoms: _209  and  _210
REMARK   96  A    between atoms: _210  and  _211
REMARK   97  A    between atoms: _211  and  _212
REMARK   98  A    between atoms: _216  and  _218
REMARK   99  A    between atoms: _218  and  _219
REMARK  100  A    between atoms: _222  and  _224
REMARK  101  A    between atoms: _224  and  _225
REMARK  102  A    between atoms: _224  and  _227
REMARK  103  A    between atoms: _227  and  _228
REMARK  104  A    between atoms: _231  and  _233
REMARK  105  A    between atoms: _233  and  _234
REMARK  106  A    between atoms: _233  and  _236
REMARK  107  A    between atoms: _236  and  _237
REMARK  108  A    between atoms: _240  and  _242
REMARK  109  A    between atoms: _242  and  _243
REMARK  110  A    between atoms: _242  and  _245
REMARK  111  A    between atoms: _245  and  _246
REMARK  112  A    between atoms: _249  and  _251
REMARK  113  A    between atoms: _251  and  _252
REMARK  114  A    between atoms: _251  and  _254
REMARK  115  A    between atoms: _254  and  _255
REMARK  116  A    between atoms: _260  and  _262
REMARK  117  A    between atoms: _262  and  _263
REMARK  118  A    between atoms: _262  and  _265
REMARK  119  A    between atoms: _265  and  _266
REMARK  120  A    between atoms: _271  and  _273
REMARK  121  A    between atoms: _273  and  _274
REMARK  122  A    between atoms: _273  and  _276
REMARK  123  A    between atoms: _276  and  _277
REMARK  124  A    between atoms: _280  and  _282
REMARK  125  A    between atoms: _282  and  _283
REMARK  126  A    between atoms: _285  and  _287
REMARK  127  A    between atoms: _287  and  _288
REMARK  128  A    between atoms: _287  and  _290
REMARK  129  A    between atoms: _290  and  _291
REMARK  130  A    between atoms: _294  and  _296
REMARK  131  A    between atoms: _296  and  _297
REMARK  132  A    between atoms: _296  and  _299
REMARK  133  A    between atoms: _299  and  _300
REMARK  134  A    between atoms: _303  and  _305
REMARK  135  A    between atoms: _305  and  _306
REMARK  136  A    between atoms: _309  and  _311
REMARK  137  A    between atoms: _311  and  _312
REMARK  138  A    between atoms: _311  and  _314
REMARK  139  A    between atoms: _314  and  _315
REMARK  140  A    between atoms: _315  and  _316
REMARK  141  A    between atoms: _316  and  _317
REMARK  142  A    between atoms: _317  and  _318
REMARK  143  A    between atoms: _322  and  _324
REMARK  144  A    between atoms: _324  and  _325
REMARK  145  A    between atoms: _327  and  _329
REMARK  146  A    between atoms: _329  and  _330
REMARK  147  A    between atoms: _329  and  _332
REMARK  148  A    between atoms: _332  and  _333
REMARK  149  A    between atoms: _336  and  _338
REMARK  150  A    between atoms: _338  and  _339
REMARK  151  A    between atoms: _341  and  _343
REMARK  152  A    between atoms: _343  and  _344
REMARK  153  A    between atoms: _343  and  _346
REMARK  154  A    between atoms: _346  and  _347
REMARK  155  A    between atoms: _353  and  _355
REMARK  156  A    between atoms: _355  and  _356
REMARK  157  A    between atoms: _358  and  _360
REMARK  158  A    between atoms: _360  and  _361
REMARK  159  A    between atoms: _360  and  _363
REMARK  160  A    between atoms: _366  and  _368
REMARK  161  A    between atoms: _368  and  _369
REMARK  162  A    between atoms: _371  and  _373
REMARK  163  A    between atoms: _373  and  _374
REMARK  164  A    between atoms: _373  and  _376
REMARK  165  A    between atoms: _376  and  _377
REMARK  166  A    between atoms: _383  and  _385
REMARK  167  A    between atoms: _385  and  _386
REMARK  168  A    between atoms: _385  and  _388
REMARK  169  A    between atoms: _388  and  _389
REMARK  170  A    between atoms: _394  and  _395
REMARK  171  A    between atoms: _397  and  _399
REMARK  172  A    between atoms: _399  and  _400
REMARK  173  A    between atoms: _399  and  _402
REMARK  174  A    between atoms: _402  and  _403
REMARK  175  A    between atoms: _408  and  _409
REMARK  176  A    between atoms: _411  and  _413
REMARK  177  A    between atoms: _413  and  _414
REMARK  178  A    between atoms: _413  and  _416
REMARK  179  A    between atoms: _419  and  _421
REMARK  180  A    between atoms: _421  and  _422
REMARK  181  A    between atoms: _421  and  _424
REMARK  182  A    between atoms: _424  and  _425
REMARK  183  A    between atoms: _428  and  _430
REMARK  184  A    between atoms: _430  and  _431
REMARK  185  A    between atoms: _430  and  _433
REMARK  186  A    between atoms: _436  and  _438
REMARK  187  A    between atoms: _438  and  _439
REMARK  188  A    between atoms: _438  and  _441
REMARK  189  A    between atoms: _441  and  _442
REMARK  190  A    between atoms: _445  and  _447
REMARK  191  A    between atoms: _447  and  _448
REMARK  192  A    between atoms: _447  and  _450
REMARK  193  A    between atoms: _450  and  _451
REMARK  194  A    between atoms: _454  and  _456
REMARK  195  A    between atoms: _456  and  _457
REMARK  196  A    between atoms: _456  and  _459
REMARK  197  A    between atoms: _459  and  _460
REMARK  198  A    between atoms: _460  and  _461
REMARK  199  A    between atoms: _461  and  _462
REMARK  200  A    between atoms: _462  and  _463
REMARK  201  A    between atoms: _467  and  _469
REMARK  202  A    between atoms: _469  and  _470
REMARK  203  A    between atoms: _469  and  _472
REMARK  204  A    between atoms: _472  and  _473
REMARK  205  A    between atoms: _483  and  _485
REMARK  206  A    between atoms: _485  and  _486
REMARK  207  A    between atoms: _485  and  _488
REMARK  208  A    between atoms: _488  and  _489
REMARK  209  A    between atoms: _489  and  _490
REMARK  210  A    between atoms: _493  and  _495
REMARK  211  A    between atoms: _495  and  _496
REMARK  212  A    between atoms: _495  and  _498
REMARK  213  A    between atoms: _498  and  _499
REMARK  214  A    between atoms: _501  and  _503
REMARK  215  A    between atoms: _503  and  _504
REMARK  216  A    between atoms: _503  and  _506
REMARK  217  A    between atoms: _506  and  _507
REMARK  218  A    between atoms: _513  and  _515
REMARK  219  A    between atoms: _515  and  _516
REMARK  220  A    between atoms: _515  and  _518
REMARK  221  A    between atoms: _518  and  _519
REMARK  222  A    between atoms: _522  and  _524
REMARK  223  A    between atoms: _524  and  _525
REMARK  224  A    between atoms: _524  and  _527
REMARK  225  A    between atoms: _530  and  _532
REMARK  226  A    between atoms: _532  and  _533
REMARK  227  A    between atoms: _535  and  _537
REMARK  228  A    between atoms: _537  and  _538
REMARK  229  A    between atoms: _537  and  _540
REMARK  230  A    between atoms: _540  and  _541
REMARK  231  A    between atoms: _544  and  _546
REMARK  232  A    between atoms: _546  and  _547
REMARK  233  A    between atoms: _546  and  _549
REMARK  234  A    between atoms: _549  and  _550
REMARK  235  A    between atoms: _550  and  _551
REMARK  236  A    between atoms: _551  and  _552
REMARK  237  A    between atoms: _552  and  _553
REMARK  238  A    between atoms: _557  and  _559
REMARK  239  A    between atoms: _559  and  _560
REMARK  240  A    between atoms: _559  and  _562
REMARK                            x       y       z     vdW  Elec       q    Type
REMARK                         _______ _______ _______ _____ _____    ______ ____
ROOT
ATOM      1  C   GLY A   1      13.687  -5.575 -18.115  0.00  0.00    +0.240 C 
ATOM      2  O   GLY A   1      13.666  -5.365 -16.904  0.00  0.00    -0.274 OA
ATOM      3  N   THR A   2      14.194  -6.693 -18.636  0.00  0.00    -0.296 N 
ATOM      4  H   THR A   2      14.176  -6.823 -19.668  0.00  0.00    +0.150 HD
ENDROOT
BRANCH   1   5
ATOM      5  CA  GLY A   1      13.108  -4.555 -19.078  0.00  0.00    +0.169 C 
BRANCH   5   6
ATOM      6  N   GLY A   1      13.889  -4.469 -20.316  0.00  0.00    -0.236 NA
ATOM      7  H   GLY A   1      13.461  -4.788 -21.209  0.00  0.00    +0.142 HD
ENDBRANCH   5   6
ENDBRANCH   1   5
BRANCH   3   8
ATOM      8  CA  THR A   2      14.777  -7.747 -17.793  0.00  0.00    +0.164 C 
BRANCH   8   9
ATOM      9  C   THR A   2      15.999  -7.202 -17.047  0.00  0.00    +0.229 C 
ATOM     10  O   THR A   2      16.111  -7.433 -15.845  0.00  0.00    -0.286 OA
ENDBRANCH   8   9
BRANCH   8  11
ATOM     11  CB  THR A   2      15.153  -8.961 -18.678  0.00  0.00    +0.136 C 
ATOM     12  CG2 THR A   2      15.829  -9.995 -17.944  0.00  0.00    +0.034 C 
BRANCH  11  13
ATOM     13  OG1 THR A   2      13.983  -9.499 -19.265  0.00  0.00    -0.382 OA
ATOM     14  HG1 THR A   2      13.547  -8.807 -19.822  0.00  0.00    +0.210 HD
ENDBRANCH  11  13
ENDBRANCH   8  11
ENDBRANCH   3   8
TORSDOF 6
REMARK  Name = ../refined-set-2016/4o04/4o04_pocket.pdb
REMARK  240 active torsions:
REMARK  status: ('A' for Active; 'I' for Inactive)
REMARK    1  A    between atoms: _1  and  _3
REMARK    2  A    between atoms: _3  and  _4
REMARK    3  A    between atoms: _3  and  _6
REMARK    4  A    between atoms: _6  and  _7
REMARK    5  A    between atoms: _13  and  _15
REMARK    6  A    between atoms: _15  and  _16
REMARK    7  A    between atoms: _15  and  _18
REMARK    8  A    between atoms: _18  and  _19
REMARK    9  A    between atoms: _22  and  _24
REMARK   10  A    between atoms: _24  and  _25
REMARK   11  A    between atoms: _24  and  _27
REMARK   12  A    between atoms: _27  and  _28
REMARK   13  A    between atoms: _31  and  _33
REMARK   14  A    between atoms: _33  and  _34
REMARK   15  A    between atoms: _33  and  _36
REMARK   16  A    between atoms: _36  and  _37
REMARK   17  A    between atoms: _37  and  _38
REMARK   18  A    between atoms: _41  and  _43
REMARK   19  A    between atoms: _43  and  _44
REMARK   20  A    between atoms: _43  and  _46
REMARK   21  A    between atoms: _46  and  _47
REMARK   22  A    between atoms: _50  and  _52
REMARK   23  A    between atoms: _52  and  _53
REMARK   24  A    between atoms: _52  and  _55
REMARK   25  A    between atoms: _55  and  _56
REMARK   26  A    between atoms: _59  and  _61
REMARK   27  A    between atoms: _61  and  _62
REMARK   28  A    between atoms: _61  and  _64
REMARK   29  A    between atoms: _64  and  _65
REMARK   30  A    between atoms: _67  and  _69
REMARK   31  A    between atoms: _69  and  _70
REMARK   32  A    between atoms: _69  and  _72
REMARK   33  A    between atoms: _72  and  _73
REMARK   34  A    between atoms: _78  and  _80
REMARK   35  A    between atoms: _80  and  _81
REMARK   36  A    between atoms: _80  and  _83
REMARK   37  A    between atoms: _83  and  _84
REMARK   38  A    between atoms: _86  and  _88
REMARK   39  A    between atoms: _88  and  _89
REMARK   40  A    between atoms: _88  and  _91
REMARK   41  A    between atoms: _91  and  _92
REMARK   42  A    between atoms: _94  and  _96
REMARK   43  A    between atoms: _96  and  _97
REMARK   44  A    between atoms: _96  and  _99
REMARK   45  A    between atoms: _99  and  _100
REMARK   46  A    between atoms: _103  and  _105
REMARK   47  A    between atoms: _105  and  _106
REMARK   48  A    between atoms: _109  and  _111
REMARK   49  A    between atoms: _111  and  _112
REMARK   50  A    between atoms: _111  and  _114
REMARK   51  A    between atoms: _114  and  _115
REMARK   52  A    between atoms: _118  and  _120
REMARK   53  A    between atoms: _120  and  _121
REMARK   54  A    between atoms: _120  and  _123
REMARK   55  A    between atoms: _123  and  _124
REMARK   56  A    between atoms: _124  and  _125
REMARK   57  A    between atoms: _125  and  _126
REMARK   58  A    between atoms: _126  and  _127
REMARK   59  A    between atoms: _131  and  _133
REMARK   60  A    between atoms: _133  and  _134
REMARK   61  A    between atoms: _133  and  _136
REMARK   62  A    between atoms: _136  and  _137
REMARK   63  A    between atoms: _140  and  _142
REMARK   64  A    between atoms: _142  and  _143
REMARK   65  A    between atoms: _142  and  _145
REMARK   66  A    between atoms: _148  and  _150
REMARK   67  A    between atoms: _150  and  _151
REMARK   68  A    between atoms: _150  and  _153
REMARK   69  A    between atoms: _153  and  _154
REMARK   70  A    between atoms: _157  and  _159
REMARK   71  A    between atoms: _159  and  _160
REMARK   72  A    between atoms: _159  and  _162
REMARK   73  A    between atoms: _162  and  _163
REMARK   74  A    between atoms: _166  and  _168
REMARK   75  A    between atoms: _168  and  _169
REMARK   76  A    between atoms: _171  and  _173
REMARK   77  A    between atoms: _173  and  _174
REMARK   78  A    between atoms: _173  and  _176
REMARK   79  A    between atoms: _176  and  _177
REMARK   80  A    between atoms: _180  and  _182
REMARK   81  A    between atoms: _182  and  _183
REMARK   82  A    between atoms: _185  and  _187
REMARK   83  A    between atoms: _187  and  _188
REMARK   84  A    between atoms: _187  and  _190
REMARK   85  A    between atoms: _190  and  _191
REMARK   86  A    between atoms: _191  and  _192
REMARK   87  A    between atoms: _194  and  _196
REMARK   88  A    between atoms: _196  and  _197
REMARK   89  A    between atoms: _196  and  _199
REMARK   90  A    between atoms: _199  and  _200
REMARK   91  A    between atoms: _203  and  _205
REMARK   92  A    between atoms: _205  and  _206
REMARK   93  A    between atoms: _205  and  _208
REMARK   94  A    between atoms: _208  and  _209
REMARK   95  A    between atoms: _209  and  _210
REMARK   96  A    between atoms: _210  and  _211
REMARK   97  A    between atoms: _211  and  _212
REMARK   98  A    between atoms: _216  and  _218
REMARK   99  A    between atoms: _218  and  _219
REMARK  100  A    between atoms: _222  and  _224
REMARK  101  A    between atoms: _224  and  _225
REMARK  102  A    between atoms: _224  and  _227
REMARK  103  A    between atoms: _227  and  _228
REMARK  104  A    between atoms: _231  and  _233
REMARK  105  A    between atoms: _233  and  _234
REMARK  106  A    between atoms: _233  and  _236
REMARK  107  A    between atoms: _236  and  _237
REMARK  108  A    between atoms: _240  and  _242
REMARK  109  A    between atoms: _242  and  _243
REMARK  110  A    between atoms: _242  and  _245
REMARK  111  A    between atoms: _245  and  _246
REMARK  112  A    between atoms: _249  and  _251
REMARK  113  A    between atoms: _251  and  _252
REMARK  114  A    between atoms: _251  and  _254
REMARK  115  A    between atoms: _254  and  _255
REMARK  116  A    between atoms: _260  and  _262
REMARK  117  A    between atoms: _262  and  _263
REMARK  118  A    between atoms: _262  and  _265
REMARK  119  A    between atoms: _265  and  _266
REMARK  120  A    between atoms: _271  and  _273
REMARK  121  A    between atoms: _273  and  _274
REMARK  122  A    between atoms: _273  and  _276
REMARK  123  A    between atoms: _276  and  _277
REMARK  124  A    between atoms: _280  and  _282
REMARK  125  A    between atoms: _282  and  _283
REMARK  126  A    between atoms: _285  and  _287
REMARK  127  A    between atoms: _287  and  _288
REMARK  128  A    between atoms: _287  and  _290
REMARK  129  A    between atoms: _290  and  _291
REMARK  130  A    between atoms: _294  and  _296
REMARK  131  A    between atoms: _296  and  _297
REMARK  132  A    between atoms: _296  and  _299
REMARK  133  A    between atoms: _299  and  _300
REMARK  134  A    between atoms: _303  and  _305
REMARK  135  A    between atoms: _305  and  _306
REMARK  136  A    between atoms: _309  and  _311
REMARK  137  A    between atoms: _311  and  _312
REMARK  138  A    between atoms: _311  and  _314
REMARK  139  A    between atoms: _314  and  _315
REMARK  140  A    between atoms: _315  and  _316
REMARK  141  A    between atoms: _316  and  _317
REMARK  142  A    between atoms: _317  and  _318
REMARK  143  A    between atoms: _322  and  _324
REMARK  144  A    between atoms: _324  and  _325
REMARK  145  A    between atoms: _327  and  _329
REMARK  146  A    between atoms: _329  and  _330
REMARK  147  A    between atoms: _329  and  _332
REMARK  148  A    between atoms: _332  and  _333
REMARK  149  A    between atoms: _336  and  _338
REMARK  150  A    between atoms: _338  and  _339
REMARK  151  A    between atoms: _341  and  _343
REMARK  152  A    between atoms: _343  and  _344
REMARK  153  A    between atoms: _343  and  _346
REMARK  154  A    between atoms: _346  and  _347
REMARK  155  A    between atoms: _353  and  _355
REMARK  156  A    between atoms: _355  and  _356
REMARK  157  A    between atoms: _358  and  _360
REMARK  158  A    between atoms: _360  and  _361
REMARK  159  A    between atoms: _360  and  _363
REMARK  160  A    between atoms: _366  and  _368
REMARK  161  A    between atoms: _368  and  _369
REMARK  162  A    between atoms: _371  and  _373
REMARK  163  A    between atoms: _373  and  _374
REMARK  164  A    between atoms: _373  and  _376
REMARK  165  A    between atoms: _376  and  _377
REMARK  166  A    between atoms: _383  and  _385
REMARK  167  A    between atoms: _385  and  _386
REMARK  168  A    between atoms: _385  and  _388
REMARK  169  A    between atoms: _388  and  _389
REMARK  170  A    between atoms: _394  and  _395
REMARK  171  A    between atoms: _397  and  _399
REMARK  172  A    between atoms: _399  and  _400
REMARK  173  A    between atoms: _399  and  _402
REMARK  174  A    between atoms: _402  and  _403
REMARK  175  A    between atoms: _408  and  _409
REMARK  176  A    between atoms: _411  and  _413
REMARK  177  A    between atoms: _413  and  _414
REMARK  178  A    between atoms: _413  and  _416
REMARK  179  A    between atoms: _419  and  _421
REMARK  180  A    between atoms: _421  and  _422
REMARK  181  A    between atoms: _421  and  _424
REMARK  182  A    between atoms: _424  and  _425
REMARK  183  A    between atoms: _428  and  _430
REMARK  184  A    between atoms: _430  and  _431
REMARK  185  A    between atoms: _430  and  _433
REMARK  186  A    between atoms: _436  and  _438
REMARK  187  A    between atoms: _438  and  _439
REMARK  188  A    between atoms: _438  and  _441
REMARK  189  A    between atoms: _441  and  _442
REMARK  190  A    between atoms: _445  and  _447
REMARK  191  A    between atoms: _447  and  _448
REMARK  192  A    between atoms: _447  and  _450
REMARK  193  A    between atoms: _450  and  _451
REMARK  194  A    between atoms: _454  and  _456
REMARK  195  A    between atoms: _456  and  _457
REMARK  196  A    between atoms: _456  and  _459
REMARK  197  A    between atoms: _459  and  _460
REMARK  198  A    between atoms: _460  and  _461
REMARK  199  A    between atoms: _461  and  _462
REMARK  200  A    between atoms: _462  and  _463
REMARK  201  A    between atoms: _467  and  _469
REMARK  202  A    between atoms: _469  and  _470
REMARK  203  A    between atoms: _469  and  _472
REMARK  204  A    between atoms: _472  and  _473
REMARK  205  A    between atoms: _483  and  _485
REMARK  206  A    between atoms: _485  and  _486
REMARK  207  A    between atoms: _485  and  _488
REMARK  208  A    between atoms: _488  and  _489
REMARK  209  A    between atoms: _489  and  _490
REMARK  210  A    between atoms: _493  and  _495
REMARK  211  A    between atoms: _495  and  _496
REMARK  212  A    between atoms: _495  and  _498
REMARK  213  A    between atoms: _498  and  _499
REMARK  214  A    between atoms: _501  and  _503
REMARK  215  A    between atoms: _503  and  _504
REMARK  216  A    between atoms: _503  and  _506
REMARK  217  A    between atoms: _506  and  _507
REMARK  218  A    between atoms: _513  and  _515
REMARK  219  A    between atoms: _515  and  _516
REMARK  220  A    between atoms: _515  and  _518
REMARK  221  A    between atoms: _518  and  _519
REMARK  222  A    between atoms: _522  and  _524
REMARK  223  A    between atoms: _524  and  _525
REMARK  224  A    between atoms: _524  and  _527
REMARK  225  A    between atoms: _530  and  _532
REMARK  226  A    between atoms: _532  and  _533
REMARK  227  A    between atoms: _535  and  _537
REMARK  228  A    between atoms: _537  and  _538
REMARK  229  A    between atoms: _537  and  _540
REMARK  230  A    between atoms: _540  and  _541
REMARK  231  A    between atoms: _544  and  _546
REMARK  232  A    between atoms: _546  and  _547
REMARK  233  A    between atoms: _546  and  _549
REMARK  234  A    between atoms: _549  and  _550
REMARK  235  A    between atoms: _550  and  _551
REMARK  236  A    between atoms: _551  and  _552
REMARK  237  A    between atoms: _552  and  _553
REMARK  238  A    between atoms: _557  and  _559
REMARK  239  A    between atoms: _559  and  _560
REMARK  240  A    between atoms: _559  and  _562
REMARK                            x       y       z     vdW  Elec       q    Type
REMARK                         _______ _______ _______ _____ _____    ______ ____
ROOT
ATOM      1  CA  GLY A   1       4.950  -5.680 -14.416  0.00  0.00    +0.156 C 
ENDROOT
BRANCH   1   2
ATOM      2  N   GLY A   1       5.796  -6.377 -13.426  0.00  0.00    -0.238 NA
ATOM      3  H   GLY A   1       5.356  -6.677 -12.533  0.00  0.00    +0.142 HD
ENDBRANCH   1   2
BRANCH   1   4
ATOM      4  C   GLY A   1       5.428  -4.282 -14.772  0.00  0.00    +0.226 C 
ATOM      5  O   GLY A   1       5.286  -3.860 -15.910  0.00  0.00    -0.287 OA
ENDBRANCH   1   4
TORSDOF 2
REMARK  Name = ../refined-set-2016/4o04/4o04_pocket.pdb
REMARK  240 active torsions:
REMARK  status: ('A' for Active; 'I' for Inactive)
REMARK    1  A    between atoms: _1  and  _3
REMARK    2  A    between atoms: _3  and  _4
REMARK    3  A    between atoms: _3  and  _6
REMARK    4  A    between atoms: _6  and  _7
REMARK    5  A    between atoms: _13  and  _15
REMARK    6  A    between atoms: _15  and  _16
REMARK    7  A    between atoms: _15  and  _18
REMARK    8  A    between atoms: _18  and  _19
REMARK    9  A    between atoms: _22  and  _24
REMARK   10  A    between atoms: _24  and  _25
REMARK   11  A    between atoms: _24  and  _27
REMARK   12  A    between atoms: _27  and  _28
REMARK   13  A    between atoms: _31  and  _33
REMARK   14  A    between atoms: _33  and  _34
REMARK   15  A    between atoms: _33  and  _36
REMARK   16  A    between atoms: _36  and  _37
REMARK   17  A    between atoms: _37  and  _38
REMARK   18  A    between atoms: _41  and  _43
REMARK   19  A    between atoms: _43  and  _44
REMARK   20  A    between atoms: _43  and  _46
REMARK   21  A    between atoms: _46  and  _47
REMARK   22  A    between atoms: _50  and  _52
REMARK   23  A    between atoms: _52  and  _53
REMARK   24  A    between atoms: _52  and  _55
REMARK   25  A    between atoms: _55  and  _56
REMARK   26  A    between atoms: _59  and  _61
REMARK   27  A    between atoms: _61  and  _62
REMARK   28  A    between atoms: _61  and  _64
REMARK   29  A    between atoms: _64  and  _65
REMARK   30  A    between atoms: _67  and  _69
REMARK   31  A    between atoms: _69  and  _70
REMARK   32  A    between atoms: _69  and  _72
REMARK   33  A    between atoms: _72  and  _73
REMARK   34  A    between atoms: _78  and  _80
REMARK   35  A    between atoms: _80  and  _81
REMARK   36  A    between atoms: _80  and  _83
REMARK   37  A    between atoms: _83  and  _84
REMARK   38  A    between atoms: _86  and  _88
REMARK   39  A    between atoms: _88  and  _89
REMARK   40  A    between atoms: _88  and  _91
REMARK   41  A    between atoms: _91  and  _92
REMARK   42  A    between atoms: _94  and  _96
REMARK   43  A    between atoms: _96  and  _97
REMARK   44  A    between atoms: _96  and  _99
REMARK   45  A    between atoms: _99  and  _100
REMARK   46  A    between atoms: _103  and  _105
REMARK   47  A    between atoms: _105  and  _106
REMARK   48  A    between atoms: _109  and  _111
REMARK   49  A    between atoms: _111  and  _112
REMARK   50  A    between atoms: _111  and  _114
REMARK   51  A    between atoms: _114  and  _115
REMARK   52  A    between atoms: _118  and  _120
REMARK   53  A    between atoms: _120  and  _121
REMARK   54  A    between atoms: _120  and  _123
REMARK   55  A    between atoms: _123  and  _124
REMARK   56  A    between atoms: _124  and  _125
REMARK   57  A    between atoms: _125  and  _126
REMARK   58  A    between atoms: _126  and  _127
REMARK   59  A    between atoms: _131  and  _133
REMARK   60  A    between atoms: _133  and  _134
REMARK   61  A    between atoms: _133  and  _136
REMARK   62  A    between atoms: _136  and  _137
REMARK   63  A    between atoms: _140  and  _142
REMARK   64  A    between atoms: _142  and  _143
REMARK   65  A    between atoms: _142  and  _145
REMARK   66  A    between atoms: _148  and  _150
REMARK   67  A    between atoms: _150  and  _151
REMARK   68  A    between atoms: _150  and  _153
REMARK   69  A    between atoms: _153  and  _154
REMARK   70  A    between atoms: _157  and  _159
REMARK   71  A    between atoms: _159  and  _160
REMARK   72  A    between atoms: _159  and  _162
REMARK   73  A    between atoms: _162  and  _163
REMARK   74  A    between atoms: _166  and  _168
REMARK   75  A    between atoms: _168  and  _169
REMARK   76  A    between atoms: _171  and  _173
REMARK   77  A    between atoms: _173  and  _174
REMARK   78  A    between atoms: _173  and  _176
REMARK   79  A    between atoms: _176  and  _177
REMARK   80  A    between atoms: _180  and  _182
REMARK   81  A    between atoms: _182  and  _183
REMARK   82  A    between atoms: _185  and  _187
REMARK   83  A    between atoms: _187  and  _188
REMARK   84  A    between atoms: _187  and  _190
REMARK   85  A    between atoms: _190  and  _191
REMARK   86  A    between atoms: _191  and  _192
REMARK   87  A    between atoms: _194  and  _196
REMARK   88  A    between atoms: _196  and  _197
REMARK   89  A    between atoms: _196  and  _199
REMARK   90  A    between atoms: _199  and  _200
REMARK   91  A    between atoms: _203  and  _205
REMARK   92  A    between atoms: _205  and  _206
REMARK   93  A    between atoms: _205  and  _208
REMARK   94  A    between atoms: _208  and  _209
REMARK   95  A    between atoms: _209  and  _210
REMARK   96  A    between atoms: _210  and  _211
REMARK   97  A    between atoms: _211  and  _212
REMARK   98  A    between atoms: _216  and  _218
REMARK   99  A    between atoms: _218  and  _219
REMARK  100  A    between atoms: _222  and  _224
REMARK  101  A    between atoms: _224  and  _225
REMARK  102  A    between atoms: _224  and  _227
REMARK  103  A    between atoms: _227  and  _228
REMARK  104  A    between atoms: _231  and  _233
REMARK  105  A    between atoms: _233  and  _234
REMARK  106  A    between atoms: _233  and  _236
REMARK  107  A    between atoms: _236  and  _237
REMARK  108  A    between atoms: _240  and  _242
REMARK  109  A    between atoms: _242  and  _243
REMARK  110  A    between atoms: _242  and  _245
REMARK  111  A    between atoms: _245  and  _246
REMARK  112  A    between atoms: _249  and  _251
REMARK  113  A    between atoms: _251  and  _252
REMARK  114  A    between atoms: _251  and  _254
REMARK  115  A    between atoms: _254  and  _255
REMARK  116  A    between atoms: _260  and  _262
REMARK  117  A    between atoms: _262  and  _263
REMARK  118  A    between atoms: _262  and  _265
REMARK  119  A    between atoms: _265  and  _266
REMARK  120  A    between atoms: _271  and  _273
REMARK  121  A    between atoms: _273  and  _274
REMARK  122  A    between atoms: _273  and  _276
REMARK  123  A    between atoms: _276  and  _277
REMARK  124  A    between atoms: _280  and  _282
REMARK  125  A    between atoms: _282  and  _283
REMARK  126  A    between atoms: _285  and  _287
REMARK  127  A    between atoms: _287  and  _288
REMARK  128  A    between atoms: _287  and  _290
REMARK  129  A    between atoms: _290  and  _291
REMARK  130  A    between atoms: _294  and  _296
REMARK  131  A    between atoms: _296  and  _297
REMARK  132  A    between atoms: _296  and  _299
REMARK  133  A    between atoms: _299  and  _300
REMARK  134  A    between atoms: _303  and  _305
REMARK  135  A    between atoms: _305  and  _306
REMARK  136  A    between atoms: _309  and  _311
REMARK  137  A    between atoms: _311  and  _312
REMARK  138  A    between atoms: _311  and  _314
REMARK  139  A    between atoms: _314  and  _315
REMARK  140  A    between atoms: _315  and  _316
REMARK  141  A    between atoms: _316  and  _317
REMARK  142  A    between atoms: _317  and  _318
REMARK  143  A    between atoms: _322  and  _324
REMARK  144  A    between atoms: _324  and  _325
REMARK  145  A    between atoms: _327  and  _329
REMARK  146  A    between atoms: _329  and  _330
REMARK  147  A    between atoms: _329  and  _332
REMARK  148  A    between atoms: _332  and  _333
REMARK  149  A    between atoms: _336  and  _338
REMARK  150  A    between atoms: _338  and  _339
REMARK  151  A    between atoms: _341  and  _343
REMARK  152  A    between atoms: _343  and  _344
REMARK  153  A    between atoms: _343  and  _346
REMARK  154  A    between atoms: _346  and  _347
REMARK  155  A    between atoms: _353  and  _355
REMARK  156  A    between atoms: _355  and  _356
REMARK  157  A    between atoms: _358  and  _360
REMARK  158  A    between atoms: _360  and  _361
REMARK  159  A    between atoms: _360  and  _363
REMARK  160  A    between atoms: _366  and  _368
REMARK  161  A    between atoms: _368  and  _369
REMARK  162  A    between atoms: _371  and  _373
REMARK  163  A    between atoms: _373  and  _374
REMARK  164  A    between atoms: _373  and  _376
REMARK  165  A    between atoms: _376  and  _377
REMARK  166  A    between atoms: _383  and  _385
REMARK  167  A    between atoms: _385  and  _386
REMARK  168  A    between atoms: _385  and  _388
REMARK  169  A    between atoms: _388  and  _389
REMARK  170  A    between atoms: _394  and  _395
REMARK  171  A    between atoms: _397  and  _399
REMARK  172  A    between atoms: _399  and  _400
REMARK  173  A    between atoms: _399  and  _402
REMARK  174  A    between atoms: _402  and  _403
REMARK  175  A    between atoms: _408  and  _409
REMARK  176  A    between atoms: _411  and  _413
REMARK  177  A    between atoms: _413  and  _414
REMARK  178  A    between atoms: _413  and  _416
REMARK  179  A    between atoms: _419  and  _421
REMARK  180  A    between atoms: _421  and  _422
REMARK  181  A    between atoms: _421  and  _424
REMARK  182  A    between atoms: _424  and  _425
REMARK  183  A    between atoms: _428  and  _430
REMARK  184  A    between atoms: _430  and  _431
REMARK  185  A    between atoms: _430  and  _433
REMARK  186  A    between atoms: _436  and  _438
REMARK  187  A    between atoms: _438  and  _439
REMARK  188  A    between atoms: _438  and  _441
REMARK  189  A    between atoms: _441  and  _442
REMARK  190  A    between atoms: _445  and  _447
REMARK  191  A    between atoms: _447  and  _448
REMARK  192  A    between atoms: _447  and  _450
REMARK  193  A    between atoms: _450  and  _451
REMARK  194  A    between atoms: _454  and  _456
REMARK  195  A    between atoms: _456  and  _457
REMARK  196  A    between atoms: _456  and  _459
REMARK  197  A    between atoms: _459  and  _460
REMARK  198  A    between atoms: _460  and  _461
REMARK  199  A    between atoms: _461  and  _462
REMARK  200  A    between atoms: _462  and  _463
REMARK  201  A    between atoms: _467  and  _469
REMARK  202  A    between atoms: _469  and  _470
REMARK  203  A    between atoms: _469  and  _472
REMARK  204  A    between atoms: _472  and  _473
REMARK  205  A    between atoms: _483  and  _485
REMARK  206  A    between atoms: _485  and  _486
REMARK  207  A    between atoms: _485  and  _488
REMARK  208  A    between atoms: _488  and  _489
REMARK  209  A    between atoms: _489  and  _490
REMARK  210  A    between atoms: _493  and  _495
REMARK  211  A    between atoms: _495  and  _496
REMARK  212  A    between atoms: _495  and  _498
REMARK  213  A    between atoms: _498  and  _499
REMARK  214  A    between atoms: _501  and  _503
REMARK  215  A    between atoms: _503  and  _504
REMARK  216  A    between atoms: _503  and  _506
REMARK  217  A    between atoms: _506  and  _507
REMARK  218  A    between atoms: _513  and  _515
REMARK  219  A    between atoms: _515  and  _516
REMARK  220  A    between atoms: _515  and  _518
REMARK  221  A    between atoms: _518  and  _519
REMARK  222  A    between atoms: _522  and  _524
REMARK  223  A    between atoms: _524  and  _525
REMARK  224  A    between atoms: _524  and  _527
REMARK  225  A    between atoms: _530  and  _532
REMARK  226  A    between atoms: _532  and  _533
REMARK  227  A    between atoms: _535  and  _537
REMARK  228  A    between atoms: _537  and  _538
REMARK  229  A    between atoms: _537  and  _540
REMARK  230  A    between atoms: _540  and  _541
REMARK  231  A    between atoms: _544  and  _546
REMARK  232  A    between atoms: _546  and  _547
REMARK  233  A    between atoms: _546  and  _549
REMARK  234  A    between atoms: _549  and  _550
REMARK  235  A    between atoms: _550  and  _551
REMARK  236  A    between atoms: _551  and  _552
REMARK  237  A    between atoms: _552  and  _553
REMARK  238  A    between atoms: _557  and  _559
REMARK  239  A    between atoms: _559  and  _560
REMARK  240  A    between atoms: _559  and  _562
REMARK                            x       y       z     vdW  Elec       q    Type
REMARK                         _______ _______ _______ _____ _____    ______ ____
ROOT
ATOM      1  CA  GLY A   4       5.233  -9.719 -16.299  0.00  0.00    +0.176 C 
ENDROOT
BRANCH   1   2
ATOM      2  C   GLY A   4       4.797 -11.064 -16.875  0.00  0.00    +0.243 C 
ATOM      3  O   GLY A   4       4.500 -11.970 -16.107  0.00  0.00    -0.273 OA
ATOM      4  N   PHE A   5       4.819 -11.231 -18.222  0.00  0.00    -0.297 N 
ATOM      5  H   PHE A   5       5.072 -10.439 -18.847  0.00  0.00    +0.150 HD
BRANCH   4   6
ATOM      6  CA  PHE A   5       4.474 -12.569 -18.795  0.00  0.00    +0.153 C 
BRANCH   6   7
ATOM      7  C   PHE A   5       5.295 -13.683 -18.145  0.00  0.00    +0.241 C 
ATOM      8  O   PHE A   5       4.752 -14.764 -17.854  0.00  0.00    -0.273 OA
ATOM      9  N   TYR A   6       6.602 -13.430 -17.900  0.00  0.00    -0.298 N 
ATOM     10  H   TYR A   6       6.989 -12.488 -18.111  0.00  0.00    +0.150 HD
BRANCH   9  11
ATOM     11  CA  TYR A   6       7.483 -14.465 -17.340  0.00  0.00    +0.141 C 
BRANCH  11  12
ATOM     12  C   TYR A   6       7.147 -14.866 -15.907  0.00  0.00    +0.227 C 
ATOM     13  O   TYR A   6       7.581 -15.944 -15.486  0.00  0.00    -0.286 OA
ENDBRANCH  11  12
BRANCH  11  14
ATOM     14  CB  TYR A   6       8.951 -14.085 -17.502  0.00  0.00    +0.054 C 
BRANCH  14  15
ATOM     15  CG  TYR A   6       9.315 -14.121 -18.978  0.00  0.00    -0.020 A 
ATOM     16  CD2 TYR A   6       9.616 -15.329 -19.616  0.00  0.00    -0.001 A 
ATOM     17  CE2 TYR A   6       9.879 -15.376 -20.994  0.00  0.00    +0.036 A 
ATOM     18  CZ  TYR A   6       9.851 -14.207 -21.744  0.00  0.00    +0.134 A 
ATOM     19  CE1 TYR A   6       9.525 -12.999 -21.144  0.00  0.00    +0.036 A 
ATOM     20  CD1 TYR A   6       9.264 -12.960 -19.761  0.00  0.00    -0.001 A 
BRANCH  18  21
ATOM     21  OH  TYR A   6      10.170 -14.257 -23.082  0.00  0.00    -0.506 OA
ATOM     22  HH  TYR A   6       9.404 -13.928 -23.615  0.00  0.00    +0.292 HD
ENDBRANCH  18  21
ENDBRANCH  14  15
ENDBRANCH  11  14
ENDBRANCH   9  11
ENDBRANCH   6   7
BRANCH   6  23
ATOM     23  CB  PHE A   5       4.778 -12.580 -20.308  0.00  0.00    +0.055 C 
BRANCH  23  24
ATOM     24  CG  PHE A   5       4.700 -13.978 -20.875  0.00  0.00    -0.020 A 
ATOM     25  CD2 PHE A   5       5.881 -14.725 -21.104  0.00  0.00    -0.004 A 
ATOM     26  CE2 PHE A   5       5.810 -16.064 -21.619  0.00  0.00    -0.000 A 
ATOM     27  CZ  PHE A   5       4.554 -16.624 -21.869  0.00  0.00    -0.000 A 
ATOM     28  CE1 PHE A   5       3.390 -15.895 -21.656  0.00  0.00    -0.000 A 
ATOM     29  CD1 PHE A   5       3.464 -14.571 -21.134  0.00  0.00    -0.004 A 
ENDBRANCH  23  24
ENDBRANCH   6  23
ENDBRANCH   4   6
ENDBRANCH   1   2
BRANCH   1  31
ATOM     30  C   VAL A   3       7.371  -9.507 -17.558  0.00  0.00    +0.241 C 
ATOM     31  N   GLY A   4       6.217  -9.017 -17.146  0.00  0.00    -0.295 N 
ATOM     32  H   GLY A   4       5.980  -8.050 -17.445  0.00  0.00    +0.150 HD
ATOM     33  O   VAL A   3       7.765 -10.657 -17.297  0.00  0.00    -0.273 OA
BRANCH  30  34
ATOM     34  CA  VAL A   3       8.245  -8.567 -18.437  0.00  0.00    +0.149 C 
BRANCH  34  36
ATOM     35  C   GLY A   2       7.600  -6.348 -19.310  0.00  0.00    +0.243 C 
ATOM     36  N   VAL A   3       7.824  -7.155 -18.279  0.00  0.00    -0.297 N 
ATOM     37  H   VAL A   3       7.698  -6.779 -17.318  0.00  0.00    +0.150 HD
ATOM     38  O   GLY A   2       7.772  -6.716 -20.459  0.00  0.00    -0.273 OA
BRANCH  35  39
ATOM     39  CA  GLY A   2       7.181  -4.926 -19.021  0.00  0.00    +0.176 C 
BRANCH  39  41
ATOM     40  C   PHE A   1       9.082  -4.154 -17.614  0.00  0.00    +0.239 C 
ATOM     41  N   GLY A   2       7.765  -4.368 -17.807  0.00  0.00    -0.296 N 
ATOM     42  H   GLY A   2       7.118  -4.117 -17.033  0.00  0.00    +0.150 HD
ATOM     43  O   PHE A   1       9.949  -4.409 -18.448  0.00  0.00    -0.274 OA
BRANCH  40  44
ATOM     44  CA  PHE A   1       9.485  -3.551 -16.267  0.00  0.00    +0.149 C 
BRANCH  44  45
ATOM     45  N   PHE A   1       8.354  -3.404 -15.360  0.00  0.00    -0.238 NA
ATOM     46  H   PHE A   1       7.955  -4.260 -14.924  0.00  0.00    +0.142 HD
ENDBRANCH  44  45
BRANCH  44  47
ATOM     47  CB  PHE A   1      10.605  -4.350 -15.533  0.00  0.00    +0.053 C 
BRANCH  47  48
ATOM     48  CG  PHE A   1      11.014  -3.672 -14.232  0.00  0.00    -0.020 A 
ATOM     49  CD2 PHE A   1      10.439  -4.048 -13.015  0.00  0.00    -0.004 A 
ATOM     50  CE2 PHE A   1      10.791  -3.395 -11.795  0.00  0.00    -0.000 A 
ATOM     51  CZ  PHE A   1      11.719  -2.365 -11.818  0.00  0.00    -0.000 A 
ATOM     52  CE1 PHE A   1      12.303  -1.977 -13.024  0.00  0.00    -0.000 A 
ATOM     53  CD1 PHE A   1      11.939  -2.621 -14.233  0.00  0.00    -0.004 A 
ENDBRANCH  47  48
ENDBRANCH  44  47
ENDBRANCH  40  44
ENDBRANCH  39  41
ENDBRANCH  35  39
ENDBRANCH  34  36
BRANCH  34  54
ATOM     54  CB  VAL A   3       9.791  -8.842 -18.262  0.00  0.00    +0.027 C 
ATOM     55  CG2 VAL A   3      10.328  -8.446 -16.865  0.00  0.00    +0.002 C 
ATOM     56  CG1 VAL A   3      10.619  -8.186 -19.370  0.00  0.00    +0.002 C 
ENDBRANCH  34  54
ENDBRANCH  30  34
ENDBRANCH   1  31
TORSDOF 20
REMARK  Name = ../refined-set-2016/4o04/4o04_pocket.pdb
REMARK  240 active torsions:
REMARK  status: ('A' for Active; 'I' for Inactive)
REMARK    1  A    between atoms: _1  and  _3
REMARK    2  A    between atoms: _3  and  _4
REMARK    3  A    between atoms: _3  and  _6
REMARK    4  A    between atoms: _6  and  _7
REMARK    5  A    between atoms: _13  and  _15
REMARK    6  A    between atoms: _15  and  _16
REMARK    7  A    between atoms: _15  and  _18
REMARK    8  A    between atoms: _18  and  _19
REMARK    9  A    between atoms: _22  and  _24
REMARK   10  A    between atoms: _24  and  _25
REMARK   11  A    between atoms: _24  and  _27
REMARK   12  A    between atoms: _27  and  _28
REMARK   13  A    between atoms: _31  and  _33
REMARK   14  A    between atoms: _33  and  _34
REMARK   15  A    between atoms: _33  and  _36
REMARK   16  A    between atoms: _36  and  _37
REMARK   17  A    between atoms: _37  and  _38
REMARK   18  A    between atoms: _41  and  _43
REMARK   19  A    between atoms: _43  and  _44
REMARK   20  A    between atoms: _43  and  _46
REMARK   21  A    between atoms: _46  and  _47
REMARK   22  A    between atoms: _50  and  _52
REMARK   23  A    between atoms: _52  and  _53
REMARK   24  A    between atoms: _52  and  _55
REMARK   25  A    between atoms: _55  and  _56
REMARK   26  A    between atoms: _59  and  _61
REMARK   27  A    between atoms: _61  and  _62
REMARK   28  A    between atoms: _61  and  _64
REMARK   29  A    between atoms: _64  and  _65
REMARK   30  A    between atoms: _67  and  _69
REMARK   31  A    between atoms: _69  and  _70
REMARK   32  A    between atoms: _69  and  _72
REMARK   33  A    between atoms: _72  and  _73
REMARK   34  A    between atoms: _78  and  _80
REMARK   35  A    between atoms: _80  and  _81
REMARK   36  A    between atoms: _80  and  _83
REMARK   37  A    between atoms: _83  and  _84
REMARK   38  A    between atoms: _86  and  _88
REMARK   39  A    between atoms: _88  and  _89
REMARK   40  A    between atoms: _88  and  _91
REMARK   41  A    between atoms: _91  and  _92
REMARK   42  A    between atoms: _94  and  _96
REMARK   43  A    between atoms: _96  and  _97
REMARK   44  A    between atoms: _96  and  _99
REMARK   45  A    between atoms: _99  and  _100
REMARK   46  A    between atoms: _103  and  _105
REMARK   47  A    between atoms: _105  and  _106
REMARK   48  A    between atoms: _109  and  _111
REMARK   49  A    between atoms: _111  and  _112
REMARK   50  A    between atoms: _111  and  _114
REMARK   51  A    between atoms: _114  and  _115
REMARK   52  A    between atoms: _118  and  _120
REMARK   53  A    between atoms: _120  and  _121
REMARK   54  A    between atoms: _120  and  _123
REMARK   55  A    between atoms: _123  and  _124
REMARK   56  A    between atoms: _124  and  _125
REMARK   57  A    between atoms: _125  and  _126
REMARK   58  A    between atoms: _126  and  _127
REMARK   59  A    between atoms: _131  and  _133
REMARK   60  A    between atoms: _133  and  _134
REMARK   61  A    between atoms: _133  and  _136
REMARK   62  A    between atoms: _136  and  _137
REMARK   63  A    between atoms: _140  and  _142
REMARK   64  A    between atoms: _142  and  _143
REMARK   65  A    between atoms: _142  and  _145
REMARK   66  A    between atoms: _148  and  _150
REMARK   67  A    between atoms: _150  and  _151
REMARK   68  A    between atoms: _150  and  _153
REMARK   69  A    between atoms: _153  and  _154
REMARK   70  A    between atoms: _157  and  _159
REMARK   71  A    between atoms: _159  and  _160
REMARK   72  A    between atoms: _159  and  _162
REMARK   73  A    between atoms: _162  and  _163
REMARK   74  A    between atoms: _166  and  _168
REMARK   75  A    between atoms: _168  and  _169
REMARK   76  A    between atoms: _171  and  _173
REMARK   77  A    between atoms: _173  and  _174
REMARK   78  A    between atoms: _173  and  _176
REMARK   79  A    between atoms: _176  and  _177
REMARK   80  A    between atoms: _180  and  _182
REMARK   81  A    between atoms: _182  and  _183
REMARK   82  A    between atoms: _185  and  _187
REMARK   83  A    between atoms: _187  and  _188
REMARK   84  A    between atoms: _187  and  _190
REMARK   85  A    between atoms: _190  and  _191
REMARK   86  A    between atoms: _191  and  _192
REMARK   87  A    between atoms: _194  and  _196
REMARK   88  A    between atoms: _196  and  _197
REMARK   89  A    between atoms: _196  and  _199
REMARK   90  A    between atoms: _199  and  _200
REMARK   91  A    between atoms: _203  and  _205
REMARK   92  A    between atoms: _205  and  _206
REMARK   93  A    between atoms: _205  and  _208
REMARK   94  A    between atoms: _208  and  _209
REMARK   95  A    between atoms: _209  and  _210
REMARK   96  A    between atoms: _210  and  _211
REMARK   97  A    between atoms: _211  and  _212
REMARK   98  A    between atoms: _216  and  _218
REMARK   99  A    between atoms: _218  and  _219
REMARK  100  A    between atoms: _222  and  _224
REMARK  101  A    between atoms: _224  and  _225
REMARK  102  A    between atoms: _224  and  _227
REMARK  103  A    between atoms: _227  and  _228
REMARK  104  A    between atoms: _231  and  _233
REMARK  105  A    between atoms: _233  and  _234
REMARK  106  A    between atoms: _233  and  _236
REMARK  107  A    between atoms: _236  and  _237
REMARK  108  A    between atoms: _240  and  _242
REMARK  109  A    between atoms: _242  and  _243
REMARK  110  A    between atoms: _242  and  _245
REMARK  111  A    between atoms: _245  and  _246
REMARK  112  A    between atoms: _249  and  _251
REMARK  113  A    between atoms: _251  and  _252
REMARK  114  A    between atoms: _251  and  _254
REMARK  115  A    between atoms: _254  and  _255
REMARK  116  A    between atoms: _260  and  _262
REMARK  117  A    between atoms: _262  and  _263
REMARK  118  A    between atoms: _262  and  _265
REMARK  119  A    between atoms: _265  and  _266
REMARK  120  A    between atoms: _271  and  _273
REMARK  121  A    between atoms: _273  and  _274
REMARK  122  A    between atoms: _273  and  _276
REMARK  123  A    between atoms: _276  and  _277
REMARK  124  A    between atoms: _280  and  _282
REMARK  125  A    between atoms: _282  and  _283
REMARK  126  A    between atoms: _285  and  _287
REMARK  127  A    between atoms: _287  and  _288
REMARK  128  A    between atoms: _287  and  _290
REMARK  129  A    between atoms: _290  and  _291
REMARK  130  A    between atoms: _294  and  _296
REMARK  131  A    between atoms: _296  and  _297
REMARK  132  A    between atoms: _296  and  _299
REMARK  133  A    between atoms: _299  and  _300
REMARK  134  A    between atoms: _303  and  _305
REMARK  135  A    between atoms: _305  and  _306
REMARK  136  A    between atoms: _309  and  _311
REMARK  137  A    between atoms: _311  and  _312
REMARK  138  A    between atoms: _311  and  _314
REMARK  139  A    between atoms: _314  and  _315
REMARK  140  A    between atoms: _315  and  _316
REMARK  141  A    between atoms: _316  and  _317
REMARK  142  A    between atoms: _317  and  _318
REMARK  143  A    between atoms: _322  and  _324
REMARK  144  A    between atoms: _324  and  _325
REMARK  145  A    between atoms: _327  and  _329
REMARK  146  A    between atoms: _329  and  _330
REMARK  147  A    between atoms: _329  and  _332
REMARK  148  A    between atoms: _332  and  _333
REMARK  149  A    between atoms: _336  and  _338
REMARK  150  A    between atoms: _338  and  _339
REMARK  151  A    between atoms: _341  and  _343
REMARK  152  A    between atoms: _343  and  _344
REMARK  153  A    between atoms: _343  and  _346
REMARK  154  A    between atoms: _346  and  _347
REMARK  155  A    between atoms: _353  and  _355
REMARK  156  A    between atoms: _355  and  _356
REMARK  157  A    between atoms: _358  and  _360
REMARK  158  A    between atoms: _360  and  _361
REMARK  159  A    between atoms: _360  and  _363
REMARK  160  A    between atoms: _366  and  _368
REMARK  161  A    between atoms: _368  and  _369
REMARK  162  A    between atoms: _371  and  _373
REMARK  163  A    between atoms: _373  and  _374
REMARK  164  A    between atoms: _373  and  _376
REMARK  165  A    between atoms: _376  and  _377
REMARK  166  A    between atoms: _383  and  _385
REMARK  167  A    between atoms: _385  and  _386
REMARK  168  A    between atoms: _385  and  _388
REMARK  169  A    between atoms: _388  and  _389
REMARK  170  A    between atoms: _394  and  _395
REMARK  171  A    between atoms: _397  and  _399
REMARK  172  A    between atoms: _399  and  _400
REMARK  173  A    between atoms: _399  and  _402
REMARK  174  A    between atoms: _402  and  _403
REMARK  175  A    between atoms: _408  and  _409
REMARK  176  A    between atoms: _411  and  _413
REMARK  177  A    between atoms: _413  and  _414
REMARK  178  A    between atoms: _413  and  _416
REMARK  179  A    between atoms: _419  and  _421
REMARK  180  A    between atoms: _421  and  _422
REMARK  181  A    between atoms: _421  and  _424
REMARK  182  A    between atoms: _424  and  _425
REMARK  183  A    between atoms: _428  and  _430
REMARK  184  A    between atoms: _430  and  _431
REMARK  185  A    between atoms: _430  and  _433
REMARK  186  A    between atoms: _436  and  _438
REMARK  187  A    between atoms: _438  and  _439
REMARK  188  A    between atoms: _438  and  _441
REMARK  189  A    between atoms: _441  and  _442
REMARK  190  A    between atoms: _445  and  _447
REMARK  191  A    between atoms: _447  and  _448
REMARK  192  A    between atoms: _447  and  _450
REMARK  193  A    between atoms: _450  and  _451
REMARK  194  A    between atoms: _454  and  _456
REMARK  195  A    between atoms: _456  and  _457
REMARK  196  A    between atoms: _456  and  _459
REMARK  197  A    between atoms: _459  and  _460
REMARK  198  A    between atoms: _460  and  _461
REMARK  199  A    between atoms: _461  and  _462
REMARK  200  A    between atoms: _462  and  _463
REMARK  201  A    between atoms: _467  and  _469
REMARK  202  A    between atoms: _469  and  _470
REMARK  203  A    between atoms: _469  and  _472
REMARK  204  A    between atoms: _472  and  _473
REMARK  205  A    between atoms: _483  and  _485
REMARK  206  A    between atoms: _485  and  _486
REMARK  207  A    between atoms: _485  and  _488
REMARK  208  A    between atoms: _488  and  _489
REMARK  209  A    between atoms: _489  and  _490
REMARK  210  A    between atoms: _493  and  _495
REMARK  211  A    between atoms: _495  and  _496
REMARK  212  A    between atoms: _495  and  _498
REMARK  213  A    between atoms: _498  and  _499
REMARK  214  A    between atoms: _501  and  _503
REMARK  215  A    between atoms: _503  and  _504
REMARK  216  A    between atoms: _503  and  _506
REMARK  217  A    between atoms: _506  and  _507
REMARK  218  A    between atoms: _513  and  _515
REMARK  219  A    between atoms: _515  and  _516
REMARK  220  A    between atoms: _515  and  _518
REMARK  221  A    between atoms: _518  and  _519
REMARK  222  A    between atoms: _522  and  _524
REMARK  223  A    between atoms: _524  and  _525
REMARK  224  A    between atoms: _524  and  _527
REMARK  225  A    between atoms: _530  and  _532
REMARK  226  A    between atoms: _532  and  _533
REMARK  227  A    between atoms: _535  and  _537
REMARK  228  A    between atoms: _537  and  _538
REMARK  229  A    between atoms: _537  and  _540
REMARK  230  A    between atoms: _540  and  _541
REMARK  231  A    between atoms: _544  and  _546
REMARK  232  A    between atoms: _546  and  _547
REMARK  233  A    between atoms: _546  and  _549
REMARK  234  A    between atoms: _549  and  _550
REMARK  235  A    between atoms: _550  and  _551
REMARK  236  A    between atoms: _551  and  _552
REMARK  237  A    between atoms: _552  and  _553
REMARK  238  A    between atoms: _557  and  _559
REMARK  239  A    between atoms: _559  and  _560
REMARK  240  A    between atoms: _559  and  _562
REMARK                            x       y       z     vdW  Elec       q    Type
REMARK                         _______ _______ _______ _____ _____    ______ ____
ROOT
ATOM      1  CG  TYR A   1       8.123 -19.798 -16.513  0.00  0.00    -0.020 A 
ATOM      2  CD2 TYR A   1       8.182 -21.147 -16.915  0.00  0.00    -0.001 A 
ATOM      3  CE2 TYR A   1       7.972 -21.517 -18.253  0.00  0.00    +0.036 A 
ATOM      4  CZ  TYR A   1       7.716 -20.537 -19.207  0.00  0.00    +0.134 A 
ATOM      5  CE1 TYR A   1       7.646 -19.195 -18.835  0.00  0.00    +0.036 A 
ATOM      6  CD1 TYR A   1       7.834 -18.834 -17.486  0.00  0.00    -0.001 A 
ENDROOT
BRANCH   4   7
ATOM      7  OH  TYR A   1       7.483 -20.878 -20.529  0.00  0.00    -0.506 OA
ATOM      8  HH  TYR A   1       7.568 -21.859 -20.636  0.00  0.00    +0.292 HD
ENDBRANCH   4   7
BRANCH   1   9
ATOM      9  CB  TYR A   1       8.282 -19.413 -15.048  0.00  0.00    +0.051 C 
BRANCH   9  10
ATOM     10  CA  TYR A   1       6.896 -19.524 -14.374  0.00  0.00    +0.137 C 
BRANCH  10  11
ATOM     11  N   TYR A   1       5.982 -18.440 -14.843  0.00  0.00    -0.239 NA
ATOM     12  H   TYR A   1       6.392 -17.560 -15.217  0.00  0.00    +0.142 HD
ENDBRANCH  10  11
BRANCH  10  13
ATOM     13  C   TYR A   1       6.980 -19.632 -12.838  0.00  0.00    +0.224 C 
ATOM     14  O   TYR A   1       7.591 -20.596 -12.335  0.00  0.00    -0.287 OA
ENDBRANCH  10  13
ENDBRANCH   9  10
ENDBRANCH   1   9
TORSDOF 5
REMARK  Name = ../refined-set-2016/4o04/4o04_pocket.pdb
REMARK  240 active torsions:
REMARK  status: ('A' for Active; 'I' for Inactive)
REMARK    1  A    between atoms: _1  and  _3
REMARK    2  A    between atoms: _3  and  _4
REMARK    3  A    between atoms: _3  and  _6
REMARK    4  A    between atoms: _6  and  _7
REMARK    5  A    between atoms: _13  and  _15
REMARK    6  A    between atoms: _15  and  _16
REMARK    7  A    between atoms: _15  and  _18
REMARK    8  A    between atoms: _18  and  _19
REMARK    9  A    between atoms: _22  and  _24
REMARK   10  A    between atoms: _24  and  _25
REMARK   11  A    between atoms: _24  and  _27
REMARK   12  A    between atoms: _27  and  _28
REMARK   13  A    between atoms: _31  and  _33
REMARK   14  A    between atoms: _33  and  _34
REMARK   15  A    between atoms: _33  and  _36
REMARK   16  A    between atoms: _36  and  _37
REMARK   17  A    between atoms: _37  and  _38
REMARK   18  A    between atoms: _41  and  _43
REMARK   19  A    between atoms: _43  and  _44
REMARK   20  A    between atoms: _43  and  _46
REMARK   21  A    between atoms: _46  and  _47
REMARK   22  A    between atoms: _50  and  _52
REMARK   23  A    between atoms: _52  and  _53
REMARK   24  A    between atoms: _52  and  _55
REMARK   25  A    between atoms: _55  and  _56
REMARK   26  A    between atoms: _59  and  _61
REMARK   27  A    between atoms: _61  and  _62
REMARK   28  A    between atoms: _61  and  _64
REMARK   29  A    between atoms: _64  and  _65
REMARK   30  A    between atoms: _67  and  _69
REMARK   31  A    between atoms: _69  and  _70
REMARK   32  A    between atoms: _69  and  _72
REMARK   33  A    between atoms: _72  and  _73
REMARK   34  A    between atoms: _78  and  _80
REMARK   35  A    between atoms: _80  and  _81
REMARK   36  A    between atoms: _80  and  _83
REMARK   37  A    between atoms: _83  and  _84
REMARK   38  A    between atoms: _86  and  _88
REMARK   39  A    between atoms: _88  and  _89
REMARK   40  A    between atoms: _88  and  _91
REMARK   41  A    between atoms: _91  and  _92
REMARK   42  A    between atoms: _94  and  _96
REMARK   43  A    between atoms: _96  and  _97
REMARK   44  A    between atoms: _96  and  _99
REMARK   45  A    between atoms: _99  and  _100
REMARK   46  A    between atoms: _103  and  _105
REMARK   47  A    between atoms: _105  and  _106
REMARK   48  A    between atoms: _109  and  _111
REMARK   49  A    between atoms: _111  and  _112
REMARK   50  A    between atoms: _111  and  _114
REMARK   51  A    between atoms: _114  and  _115
REMARK   52  A    between atoms: _118  and  _120
REMARK   53  A    between atoms: _120  and  _121
REMARK   54  A    between atoms: _120  and  _123
REMARK   55  A    between atoms: _123  and  _124
REMARK   56  A    between atoms: _124  and  _125
REMARK   57  A    between atoms: _125  and  _126
REMARK   58  A    between atoms: _126  and  _127
REMARK   59  A    between atoms: _131  and  _133
REMARK   60  A    between atoms: _133  and  _134
REMARK   61  A    between atoms: _133  and  _136
REMARK   62  A    between atoms: _136  and  _137
REMARK   63  A    between atoms: _140  and  _142
REMARK   64  A    between atoms: _142  and  _143
REMARK   65  A    between atoms: _142  and  _145
REMARK   66  A    between atoms: _148  and  _150
REMARK   67  A    between atoms: _150  and  _151
REMARK   68  A    between atoms: _150  and  _153
REMARK   69  A    between atoms: _153  and  _154
REMARK   70  A    between atoms: _157  and  _159
REMARK   71  A    between atoms: _159  and  _160
REMARK   72  A    between atoms: _159  and  _162
REMARK   73  A    between atoms: _162  and  _163
REMARK   74  A    between atoms: _166  and  _168
REMARK   75  A    between atoms: _168  and  _169
REMARK   76  A    between atoms: _171  and  _173
REMARK   77  A    between atoms: _173  and  _174
REMARK   78  A    between atoms: _173  and  _176
REMARK   79  A    between atoms: _176  and  _177
REMARK   80  A    between atoms: _180  and  _182
REMARK   81  A    between atoms: _182  and  _183
REMARK   82  A    between atoms: _185  and  _187
REMARK   83  A    between atoms: _187  and  _188
REMARK   84  A    between atoms: _187  and  _190
REMARK   85  A    between atoms: _190  and  _191
REMARK   86  A    between atoms: _191  and  _192
REMARK   87  A    between atoms: _194  and  _196
REMARK   88  A    between atoms: _196  and  _197
REMARK   89  A    between atoms: _196  and  _199
REMARK   90  A    between atoms: _199  and  _200
REMARK   91  A    between atoms: _203  and  _205
REMARK   92  A    between atoms: _205  and  _206
REMARK   93  A    between atoms: _205  and  _208
REMARK   94  A    between atoms: _208  and  _209
REMARK   95  A    between atoms: _209  and  _210
REMARK   96  A    between atoms: _210  and  _211
REMARK   97  A    between atoms: _211  and  _212
REMARK   98  A    between atoms: _216  and  _218
REMARK   99  A    between atoms: _218  and  _219
REMARK  100  A    between atoms: _222  and  _224
REMARK  101  A    between atoms: _224  and  _225
REMARK  102  A    between atoms: _224  and  _227
REMARK  103  A    between atoms: _227  and  _228
REMARK  104  A    between atoms: _231  and  _233
REMARK  105  A    between atoms: _233  and  _234
REMARK  106  A    between atoms: _233  and  _236
REMARK  107  A    between atoms: _236  and  _237
REMARK  108  A    between atoms: _240  and  _242
REMARK  109  A    between atoms: _242  and  _243
REMARK  110  A    between atoms: _242  and  _245
REMARK  111  A    between atoms: _245  and  _246
REMARK  112  A    between atoms: _249  and  _251
REMARK  113  A    between atoms: _251  and  _252
REMARK  114  A    between atoms: _251  and  _254
REMARK  115  A    between atoms: _254  and  _255
REMARK  116  A    between atoms: _260  and  _262
REMARK  117  A    between atoms: _262  and  _263
REMARK  118  A    between atoms: _262  and  _265
REMARK  119  A    between atoms: _265  and  _266
REMARK  120  A    between atoms: _271  and  _273
REMARK  121  A    between atoms: _273  and  _274
REMARK  122  A    between atoms: _273  and  _276
REMARK  123  A    between atoms: _276  and  _277
REMARK  124  A    between atoms: _280  and  _282
REMARK  125  A    between atoms: _282  and  _283
REMARK  126  A    between atoms: _285  and  _287
REMARK  127  A    between atoms: _287  and  _288
REMARK  128  A    between atoms: _287  and  _290
REMARK  129  A    between atoms: _290  and  _291
REMARK  130  A    between atoms: _294  and  _296
REMARK  131  A    between atoms: _296  and  _297
REMARK  132  A    between atoms: _296  and  _299
REMARK  133  A    between atoms: _299  and  _300
REMARK  134  A    between atoms: _303  and  _305
REMARK  135  A    between atoms: _305  and  _306
REMARK  136  A    between atoms: _309  and  _311
REMARK  137  A    between atoms: _311  and  _312
REMARK  138  A    between atoms: _311  and  _314
REMARK  139  A    between atoms: _314  and  _315
REMARK  140  A    between atoms: _315  and  _316
REMARK  141  A    between atoms: _316  and  _317
REMARK  142  A    between atoms: _317  and  _318
REMARK  143  A    between atoms: _322  and  _324
REMARK  144  A    between atoms: _324  and  _325
REMARK  145  A    between atoms: _327  and  _329
REMARK  146  A    between atoms: _329  and  _330
REMARK  147  A    between atoms: _329  and  _332
REMARK  148  A    between atoms: _332  and  _333
REMARK  149  A    between atoms: _336  and  _338
REMARK  150  A    between atoms: _338  and  _339
REMARK  151  A    between atoms: _341  and  _343
REMARK  152  A    between atoms: _343  and  _344
REMARK  153  A    between atoms: _343  and  _346
REMARK  154  A    between atoms: _346  and  _347
REMARK  155  A    between atoms: _353  and  _355
REMARK  156  A    between atoms: _355  and  _356
REMARK  157  A    between atoms: _358  and  _360
REMARK  158  A    between atoms: _360  and  _361
REMARK  159  A    between atoms: _360  and  _363
REMARK  160  A    between atoms: _366  and  _368
REMARK  161  A    between atoms: _368  and  _369
REMARK  162  A    between atoms: _371  and  _373
REMARK  163  A    between atoms: _373  and  _374
REMARK  164  A    between atoms: _373  and  _376
REMARK  165  A    between atoms: _376  and  _377
REMARK  166  A    between atoms: _383  and  _385
REMARK  167  A    between atoms: _385  and  _386
REMARK  168  A    between atoms: _385  and  _388
REMARK  169  A    between atoms: _388  and  _389
REMARK  170  A    between atoms: _394  and  _395
REMARK  171  A    between atoms: _397  and  _399
REMARK  172  A    between atoms: _399  and  _400
REMARK  173  A    between atoms: _399  and  _402
REMARK  174  A    between atoms: _402  and  _403
REMARK  175  A    between atoms: _408  and  _409
REMARK  176  A    between atoms: _411  and  _413
REMARK  177  A    between atoms: _413  and  _414
REMARK  178  A    between atoms: _413  and  _416
REMARK  179  A    between atoms: _419  and  _421
REMARK  180  A    between atoms: _421  and  _422
REMARK  181  A    between atoms: _421  and  _424
REMARK  182  A    between atoms: _424  and  _425
REMARK  183  A    between atoms: _428  and  _430
REMARK  184  A    between atoms: _430  and  _431
REMARK  185  A    between atoms: _430  and  _433
REMARK  186  A    between atoms: _436  and  _438
REMARK  187  A    between atoms: _438  and  _439
REMARK  188  A    between atoms: _438  and  _441
REMARK  189  A    between atoms: _441  and  _442
REMARK  190  A    between atoms: _445  and  _447
REMARK  191  A    between atoms: _447  and  _448
REMARK  192  A    between atoms: _447  and  _450
REMARK  193  A    between atoms: _450  and  _451
REMARK  194  A    between atoms: _454  and  _456
REMARK  195  A    between atoms: _456  and  _457
REMARK  196  A    between atoms: _456  and  _459
REMARK  197  A    between atoms: _459  and  _460
REMARK  198  A    between atoms: _460  and  _461
REMARK  199  A    between atoms: _461  and  _462
REMARK  200  A    between atoms: _462  and  _463
REMARK  201  A    between atoms: _467  and  _469
REMARK  202  A    between atoms: _469  and  _470
REMARK  203  A    between atoms: _469  and  _472
REMARK  204  A    between atoms: _472  and  _473
REMARK  205  A    between atoms: _483  and  _485
REMARK  206  A    between atoms: _485  and  _486
REMARK  207  A    between atoms: _485  and  _488
REMARK  208  A    between atoms: _488  and  _489
REMARK  209  A    between atoms: _489  and  _490
REMARK  210  A    between atoms: _493  and  _495
REMARK  211  A    between atoms: _495  and  _496
REMARK  212  A    between atoms: _495  and  _498
REMARK  213  A    between atoms: _498  and  _499
REMARK  214  A    between atoms: _501  and  _503
REMARK  215  A    between atoms: _503  and  _504
REMARK  216  A    between atoms: _503  and  _506
REMARK  217  A    between atoms: _506  and  _507
REMARK  218  A    between atoms: _513  and  _515
REMARK  219  A    between atoms: _515  and  _516
REMARK  220  A    between atoms: _515  and  _518
REMARK  221  A    between atoms: _518  and  _519
REMARK  222  A    between atoms: _522  and  _524
REMARK  223  A    between atoms: _524  and  _525
REMARK  224  A    between atoms: _524  and  _527
REMARK  225  A    between atoms: _530  and  _532
REMARK  226  A    between atoms: _532  and  _533
REMARK  227  A    between atoms: _535  and  _537
REMARK  228  A    between atoms: _537  and  _538
REMARK  229  A    between atoms: _537  and  _540
REMARK  230  A    between atoms: _540  and  _541
REMARK  231  A    between atoms: _544  and  _546
REMARK  232  A    between atoms: _546  and  _547
REMARK  233  A    between atoms: _546  and  _549
REMARK  234  A    between atoms: _549  and  _550
REMARK  235  A    between atoms: _550  and  _551
REMARK  236  A    between atoms: _551  and  _552
REMARK  237  A    between atoms: _552  and  _553
REMARK  238  A    between atoms: _557  and  _559
REMARK  239  A    between atoms: _559  and  _560
REMARK  240  A    between atoms: _559  and  _562
REMARK                            x       y       z     vdW  Elec       q    Type
REMARK                         _______ _______ _______ _____ _____    ______ ____
ROOT
ATOM      1  CA  ILE A   4      -1.672 -20.119 -28.919  0.00  0.00    +0.149 C 
ENDROOT
BRANCH   1   3
ATOM      2  C   VAL A   3       0.325 -19.983 -27.418  0.00  0.00    +0.241 C 
ATOM      3  N   ILE A   4      -1.029 -19.953 -27.593  0.00  0.00    -0.297 N 
ATOM      4  H   ILE A   4      -1.635 -19.807 -26.761  0.00  0.00    +0.150 HD
ATOM      5  O   VAL A   3       1.160 -20.170 -28.334  0.00  0.00    -0.273 OA
BRANCH   2   6
ATOM      6  CA  VAL A   3       0.830 -19.757 -25.994  0.00  0.00    +0.149 C 
BRANCH   6   9
ATOM      7  C   THR A   2       1.142 -21.672 -24.509  0.00  0.00    +0.243 C 
ATOM      8  O   THR A   2       0.178 -21.363 -23.830  0.00  0.00    -0.273 OA
ATOM      9  N   VAL A   3       1.531 -20.979 -25.562  0.00  0.00    -0.297 N 
ATOM     10  H   VAL A   3       2.357 -21.305 -26.103  0.00  0.00    +0.150 HD
BRANCH   7  11
ATOM     11  CA  THR A   2       1.941 -22.909 -24.156  0.00  0.00    +0.176 C 
BRANCH  11  13
ATOM     12  C   VAL A   1       3.507 -22.693 -22.239  0.00  0.00    +0.238 C 
ATOM     13  N   THR A   2       2.250 -22.804 -22.718  0.00  0.00    -0.295 N 
ATOM     14  H   THR A   2       1.461 -22.816 -22.040  0.00  0.00    +0.150 HD
ATOM     15  O   VAL A   1       4.510 -22.689 -22.962  0.00  0.00    -0.274 OA
BRANCH  12  16
ATOM     16  CA  VAL A   1       3.668 -22.511 -20.740  0.00  0.00    +0.145 C 
BRANCH  16  17
ATOM     17  CB  VAL A   1       4.017 -21.027 -20.374  0.00  0.00    +0.025 C 
ATOM     18  CG2 VAL A   1       4.246 -20.840 -18.852  0.00  0.00    +0.002 C 
ATOM     19  CG1 VAL A   1       2.890 -20.069 -20.870  0.00  0.00    +0.002 C 
ENDBRANCH  16  17
BRANCH  16  20
ATOM     20  N   VAL A   1       4.659 -23.496 -20.280  0.00  0.00    -0.238 NA
ATOM     21  H   VAL A   1       5.601 -23.526 -20.720  0.00  0.00    +0.142 HD
ENDBRANCH  16  20
ENDBRANCH  12  16
ENDBRANCH  11  13
BRANCH  11  22
ATOM     22  CB  THR A   2       1.125 -24.172 -24.503  0.00  0.00    +0.137 C 
ATOM     23  CG2 THR A   2       0.934 -24.337 -26.044  0.00  0.00    +0.034 C 
BRANCH  22  24
ATOM     24  OG1 THR A   2       1.823 -25.269 -23.946  0.00  0.00    -0.382 OA
ATOM     25  HG1 THR A   2       2.730 -25.315 -24.339  0.00  0.00    +0.210 HD
ENDBRANCH  22  24
ENDBRANCH  11  22
ENDBRANCH   7  11
ENDBRANCH   6   9
BRANCH   6  26
ATOM     26  CB  VAL A   3       1.732 -18.501 -25.913  0.00  0.00    +0.027 C 
ATOM     27  CG2 VAL A   3       2.273 -18.268 -24.467  0.00  0.00    +0.002 C 
ATOM     28  CG1 VAL A   3       0.979 -17.262 -26.434  0.00  0.00    +0.002 C 
ENDBRANCH   6  26
ENDBRANCH   2   6
ENDBRANCH   1   3
BRANCH   1  29
ATOM     29  C   ILE A   4      -2.109 -18.712 -29.274  0.00  0.00    +0.241 C 
ATOM     30  O   ILE A   4      -2.727 -18.051 -28.457  0.00  0.00    -0.273 OA
ATOM     31  N   THR A   5      -1.812 -18.258 -30.461  0.00  0.00    -0.295 N 
ATOM     32  H   THR A   5      -1.338 -18.869 -31.157  0.00  0.00    +0.150 HD
BRANCH  31  33
ATOM     33  CA  THR A   5      -2.156 -16.874 -30.799  0.00  0.00    +0.176 C 
BRANCH  33  34
ATOM     34  C   THR A   5      -2.452 -16.733 -32.271  0.00  0.00    +0.243 C 
ATOM     35  N   LYS A   6      -3.289 -15.753 -32.567  0.00  0.00    -0.298 N 
ATOM     36  H   LYS A   6      -3.679 -15.173 -31.797  0.00  0.00    +0.150 HD
ATOM     37  O   THR A   5      -1.882 -17.470 -33.110  0.00  0.00    -0.273 OA
BRANCH  35  38
ATOM     38  CA  LYS A   6      -3.688 -15.456 -33.961  0.00  0.00    +0.137 C 
BRANCH  38  39
ATOM     39  C   LYS A   6      -3.849 -13.932 -34.092  0.00  0.00    +0.227 C 
ATOM     40  O   LYS A   6      -4.683 -13.344 -33.391  0.00  0.00    -0.286 OA
ENDBRANCH  38  39
BRANCH  38  41
ATOM     41  CB  LYS A   6      -5.018 -16.211 -34.258  0.00  0.00    +0.028 C 
BRANCH  41  42
ATOM     42  CG  LYS A   6      -5.669 -15.885 -35.635  0.00  0.00    -0.000 C 
BRANCH  42  43
ATOM     43  CD  LYS A   6      -4.796 -16.336 -36.885  0.00  0.00    -0.024 C 
BRANCH  43  44
ATOM     44  CE  LYS A   6      -5.546 -16.083 -38.212  0.00  0.00    -0.086 C 
BRANCH  44  45
ATOM     45  NZ  LYS A   6      -5.444 -14.675 -38.583  0.00  0.00    +0.380 N 
ATOM     46  HZ1 LYS A   6      -5.865 -14.089 -37.834  0.00  0.00    -0.089 HD
ATOM     47  HZ2 LYS A   6      -4.443 -14.421 -38.702  0.00  0.00    -0.089 HD
ATOM     48  HZ3 LYS A   6      -5.952 -14.516 -39.477  0.00  0.00    -0.089 HD
ENDBRANCH  44  45
ENDBRANCH  43  44
ENDBRANCH  42  43
ENDBRANCH  41  42
ENDBRANCH  38  41
ENDBRANCH  35  38
ENDBRANCH  33  34
BRANCH  33  49
ATOM     49  CB  THR A   5      -0.985 -15.890 -30.315  0.00  0.00    +0.137 C 
ATOM     50  CG2 THR A   5       0.364 -16.095 -31.102  0.00  0.00    +0.034 C 
BRANCH  49  51
ATOM     51  OG1 THR A   5      -1.407 -14.511 -30.386  0.00  0.00    -0.382 OA
ATOM     52  HG1 THR A   5      -2.196 -14.378 -29.803  0.00  0.00    +0.210 HD
ENDBRANCH  49  51
ENDBRANCH  33  49
ENDBRANCH  31  33
ENDBRANCH   1  29
BRANCH   1  53
ATOM     53  CB  ILE A   4      -2.911 -21.106 -28.932  0.00  0.00    +0.027 C 
ATOM     54  CG2 ILE A   4      -3.405 -21.384 -30.391  0.00  0.00    +0.002 C 
BRANCH  53  55
ATOM     55  CG1 ILE A   4      -2.654 -22.457 -28.154  0.00  0.00    +0.002 C 
ATOM     56  CD1 ILE A   4      -1.602 -23.285 -28.641  0.00  0.00    +0.000 C 
ENDBRANCH  53  55
ENDBRANCH   1  53
TORSDOF 25
REMARK  Name = ../refined-set-2016/4o04/4o04_pocket.pdb
REMARK  240 active torsions:
REMARK  status: ('A' for Active; 'I' for Inactive)
REMARK    1  A    between atoms: _1  and  _3
REMARK    2  A    between atoms: _3  and  _4
REMARK    3  A    between atoms: _3  and  _6
REMARK    4  A    between atoms: _6  and  _7
REMARK    5  A    between atoms: _13  and  _15
REMARK    6  A    between atoms: _15  and  _16
REMARK    7  A    between atoms: _15  and  _18
REMARK    8  A    between atoms: _18  and  _19
REMARK    9  A    between atoms: _22  and  _24
REMARK   10  A    between atoms: _24  and  _25
REMARK   11  A    between atoms: _24  and  _27
REMARK   12  A    between atoms: _27  and  _28
REMARK   13  A    between atoms: _31  and  _33
REMARK   14  A    between atoms: _33  and  _34
REMARK   15  A    between atoms: _33  and  _36
REMARK   16  A    between atoms: _36  and  _37
REMARK   17  A    between atoms: _37  and  _38
REMARK   18  A    between atoms: _41  and  _43
REMARK   19  A    between atoms: _43  and  _44
REMARK   20  A    between atoms: _43  and  _46
REMARK   21  A    between atoms: _46  and  _47
REMARK   22  A    between atoms: _50  and  _52
REMARK   23  A    between atoms: _52  and  _53
REMARK   24  A    between atoms: _52  and  _55
REMARK   25  A    between atoms: _55  and  _56
REMARK   26  A    between atoms: _59  and  _61
REMARK   27  A    between atoms: _61  and  _62
REMARK   28  A    between atoms: _61  and  _64
REMARK   29  A    between atoms: _64  and  _65
REMARK   30  A    between atoms: _67  and  _69
REMARK   31  A    between atoms: _69  and  _70
REMARK   32  A    between atoms: _69  and  _72
REMARK   33  A    between atoms: _72  and  _73
REMARK   34  A    between atoms: _78  and  _80
REMARK   35  A    between atoms: _80  and  _81
REMARK   36  A    between atoms: _80  and  _83
REMARK   37  A    between atoms: _83  and  _84
REMARK   38  A    between atoms: _86  and  _88
REMARK   39  A    between atoms: _88  and  _89
REMARK   40  A    between atoms: _88  and  _91
REMARK   41  A    between atoms: _91  and  _92
REMARK   42  A    between atoms: _94  and  _96
REMARK   43  A    between atoms: _96  and  _97
REMARK   44  A    between atoms: _96  and  _99
REMARK   45  A    between atoms: _99  and  _100
REMARK   46  A    between atoms: _103  and  _105
REMARK   47  A    between atoms: _105  and  _106
REMARK   48  A    between atoms: _109  and  _111
REMARK   49  A    between atoms: _111  and  _112
REMARK   50  A    between atoms: _111  and  _114
REMARK   51  A    between atoms: _114  and  _115
REMARK   52  A    between atoms: _118  and  _120
REMARK   53  A    between atoms: _120  and  _121
REMARK   54  A    between atoms: _120  and  _123
REMARK   55  A    between atoms: _123  and  _124
REMARK   56  A    between atoms: _124  and  _125
REMARK   57  A    between atoms: _125  and  _126
REMARK   58  A    between atoms: _126  and  _127
REMARK   59  A    between atoms: _131  and  _133
REMARK   60  A    between atoms: _133  and  _134
REMARK   61  A    between atoms: _133  and  _136
REMARK   62  A    between atoms: _136  and  _137
REMARK   63  A    between atoms: _140  and  _142
REMARK   64  A    between atoms: _142  and  _143
REMARK   65  A    between atoms: _142  and  _145
REMARK   66  A    between atoms: _148  and  _150
REMARK   67  A    between atoms: _150  and  _151
REMARK   68  A    between atoms: _150  and  _153
REMARK   69  A    between atoms: _153  and  _154
REMARK   70  A    between atoms: _157  and  _159
REMARK   71  A    between atoms: _159  and  _160
REMARK   72  A    between atoms: _159  and  _162
REMARK   73  A    between atoms: _162  and  _163
REMARK   74  A    between atoms: _166  and  _168
REMARK   75  A    between atoms: _168  and  _169
REMARK   76  A    between atoms: _171  and  _173
REMARK   77  A    between atoms: _173  and  _174
REMARK   78  A    between atoms: _173  and  _176
REMARK   79  A    between atoms: _176  and  _177
REMARK   80  A    between atoms: _180  and  _182
REMARK   81  A    between atoms: _182  and  _183
REMARK   82  A    between atoms: _185  and  _187
REMARK   83  A    between atoms: _187  and  _188
REMARK   84  A    between atoms: _187  and  _190
REMARK   85  A    between atoms: _190  and  _191
REMARK   86  A    between atoms: _191  and  _192
REMARK   87  A    between atoms: _194  and  _196
REMARK   88  A    between atoms: _196  and  _197
REMARK   89  A    between atoms: _196  and  _199
REMARK   90  A    between atoms: _199  and  _200
REMARK   91  A    between atoms: _203  and  _205
REMARK   92  A    between atoms: _205  and  _206
REMARK   93  A    between atoms: _205  and  _208
REMARK   94  A    between atoms: _208  and  _209
REMARK   95  A    between atoms: _209  and  _210
REMARK   96  A    between atoms: _210  and  _211
REMARK   97  A    between atoms: _211  and  _212
REMARK   98  A    between atoms: _216  and  _218
REMARK   99  A    between atoms: _218  and  _219
REMARK  100  A    between atoms: _222  and  _224
REMARK  101  A    between atoms: _224  and  _225
REMARK  102  A    between atoms: _224  and  _227
REMARK  103  A    between atoms: _227  and  _228
REMARK  104  A    between atoms: _231  and  _233
REMARK  105  A    between atoms: _233  and  _234
REMARK  106  A    between atoms: _233  and  _236
REMARK  107  A    between atoms: _236  and  _237
REMARK  108  A    between atoms: _240  and  _242
REMARK  109  A    between atoms: _242  and  _243
REMARK  110  A    between atoms: _242  and  _245
REMARK  111  A    between atoms: _245  and  _246
REMARK  112  A    between atoms: _249  and  _251
REMARK  113  A    between atoms: _251  and  _252
REMARK  114  A    between atoms: _251  and  _254
REMARK  115  A    between atoms: _254  and  _255
REMARK  116  A    between atoms: _260  and  _262
REMARK  117  A    between atoms: _262  and  _263
REMARK  118  A    between atoms: _262  and  _265
REMARK  119  A    between atoms: _265  and  _266
REMARK  120  A    between atoms: _271  and  _273
REMARK  121  A    between atoms: _273  and  _274
REMARK  122  A    between atoms: _273  and  _276
REMARK  123  A    between atoms: _276  and  _277
REMARK  124  A    between atoms: _280  and  _282
REMARK  125  A    between atoms: _282  and  _283
REMARK  126  A    between atoms: _285  and  _287
REMARK  127  A    between atoms: _287  and  _288
REMARK  128  A    between atoms: _287  and  _290
REMARK  129  A    between atoms: _290  and  _291
REMARK  130  A    between atoms: _294  and  _296
REMARK  131  A    between atoms: _296  and  _297
REMARK  132  A    between atoms: _296  and  _299
REMARK  133  A    between atoms: _299  and  _300
REMARK  134  A    between atoms: _303  and  _305
REMARK  135  A    between atoms: _305  and  _306
REMARK  136  A    between atoms: _309  and  _311
REMARK  137  A    between atoms: _311  and  _312
REMARK  138  A    between atoms: _311  and  _314
REMARK  139  A    between atoms: _314  and  _315
REMARK  140  A    between atoms: _315  and  _316
REMARK  141  A    between atoms: _316  and  _317
REMARK  142  A    between atoms: _317  and  _318
REMARK  143  A    between atoms: _322  and  _324
REMARK  144  A    between atoms: _324  and  _325
REMARK  145  A    between atoms: _327  and  _329
REMARK  146  A    between atoms: _329  and  _330
REMARK  147  A    between atoms: _329  and  _332
REMARK  148  A    between atoms: _332  and  _333
REMARK  149  A    between atoms: _336  and  _338
REMARK  150  A    between atoms: _338  and  _339
REMARK  151  A    between atoms: _341  and  _343
REMARK  152  A    between atoms: _343  and  _344
REMARK  153  A    between atoms: _343  and  _346
REMARK  154  A    between atoms: _346  and  _347
REMARK  155  A    between atoms: _353  and  _355
REMARK  156  A    between atoms: _355  and  _356
REMARK  157  A    between atoms: _358  and  _360
REMARK  158  A    between atoms: _360  and  _361
REMARK  159  A    between atoms: _360  and  _363
REMARK  160  A    between atoms: _366  and  _368
REMARK  161  A    between atoms: _368  and  _369
REMARK  162  A    between atoms: _371  and  _373
REMARK  163  A    between atoms: _373  and  _374
REMARK  164  A    between atoms: _373  and  _376
REMARK  165  A    between atoms: _376  and  _377
REMARK  166  A    between atoms: _383  and  _385
REMARK  167  A    between atoms: _385  and  _386
REMARK  168  A    between atoms: _385  and  _388
REMARK  169  A    between atoms: _388  and  _389
REMARK  170  A    between atoms: _394  and  _395
REMARK  171  A    between atoms: _397  and  _399
REMARK  172  A    between atoms: _399  and  _400
REMARK  173  A    between atoms: _399  and  _402
REMARK  174  A    between atoms: _402  and  _403
REMARK  175  A    between atoms: _408  and  _409
REMARK  176  A    between atoms: _411  and  _413
REMARK  177  A    between atoms: _413  and  _414
REMARK  178  A    between atoms: _413  and  _416
REMARK  179  A    between atoms: _419  and  _421
REMARK  180  A    between atoms: _421  and  _422
REMARK  181  A    between atoms: _421  and  _424
REMARK  182  A    between atoms: _424  and  _425
REMARK  183  A    between atoms: _428  and  _430
REMARK  184  A    between atoms: _430  and  _431
REMARK  185  A    between atoms: _430  and  _433
REMARK  186  A    between atoms: _436  and  _438
REMARK  187  A    between atoms: _438  and  _439
REMARK  188  A    between atoms: _438  and  _441
REMARK  189  A    between atoms: _441  and  _442
REMARK  190  A    between atoms: _445  and  _447
REMARK  191  A    between atoms: _447  and  _448
REMARK  192  A    between atoms: _447  and  _450
REMARK  193  A    between atoms: _450  and  _451
REMARK  194  A    between atoms: _454  and  _456
REMARK  195  A    between atoms: _456  and  _457
REMARK  196  A    between atoms: _456  and  _459
REMARK  197  A    between atoms: _459  and  _460
REMARK  198  A    between atoms: _460  and  _461
REMARK  199  A    between atoms: _461  and  _462
REMARK  200  A    between atoms: _462  and  _463
REMARK  201  A    between atoms: _467  and  _469
REMARK  202  A    between atoms: _469  and  _470
REMARK  203  A    between atoms: _469  and  _472
REMARK  204  A    between atoms: _472  and  _473
REMARK  205  A    between atoms: _483  and  _485
REMARK  206  A    between atoms: _485  and  _486
REMARK  207  A    between atoms: _485  and  _488
REMARK  208  A    between atoms: _488  and  _489
REMARK  209  A    between atoms: _489  and  _490
REMARK  210  A    between atoms: _493  and  _495
REMARK  211  A    between atoms: _495  and  _496
REMARK  212  A    between atoms: _495  and  _498
REMARK  213  A    between atoms: _498  and  _499
REMARK  214  A    between atoms: _501  and  _503
REMARK  215  A    between atoms: _503  and  _504
REMARK  216  A    between atoms: _503  and  _506
REMARK  217  A    between atoms: _506  and  _507
REMARK  218  A    between atoms: _513  and  _515
REMARK  219  A    between atoms: _515  and  _516
REMARK  220  A    between atoms: _515  and  _518
REMARK  221  A    between atoms: _518  and  _519
REMARK  222  A    between atoms: _522  and  _524
REMARK  223  A    between atoms: _524  and  _525
REMARK  224  A    between atoms: _524  and  _527
REMARK  225  A    between atoms: _530  and  _532
REMARK  226  A    between atoms: _532  and  _533
REMARK  227  A    between atoms: _535  and  _537
REMARK  228  A    between atoms: _537  and  _538
REMARK  229  A    between atoms: _537  and  _540
REMARK  230  A    between atoms: _540  and  _541
REMARK  231  A    between atoms: _544  and  _546
REMARK  232  A    between atoms: _546  and  _547
REMARK  233  A    between atoms: _546  and  _549
REMARK  234  A    between atoms: _549  and  _550
REMARK  235  A    between atoms: _550  and  _551
REMARK  236  A    between atoms: _551  and  _552
REMARK  237  A    between atoms: _552  and  _553
REMARK  238  A    between atoms: _557  and  _559
REMARK  239  A    between atoms: _559  and  _560
REMARK  240  A    between atoms: _559  and  _562
REMARK                            x       y       z     vdW  Elec       q    Type
REMARK                         _______ _______ _______ _____ _____    ______ ____
ROOT
ATOM      1  C   TRP A   1       4.748 -21.871 -27.582  0.00  0.00    +0.239 C 
ATOM      2  O   TRP A   1       3.683 -22.009 -26.942  0.00  0.00    -0.274 OA
ATOM      3  N   GLU A   2       5.919 -22.412 -27.156  0.00  0.00    -0.297 N 
ATOM      4  H   GLU A   2       6.800 -22.253 -27.686  0.00  0.00    +0.150 HD
ENDROOT
BRANCH   1   5
ATOM      5  CA  TRP A   1       4.777 -20.994 -28.827  0.00  0.00    +0.149 C 
BRANCH   5   6
ATOM      6  N   TRP A   1       3.476 -21.234 -29.423  0.00  0.00    -0.238 NA
ATOM      7  H   TRP A   1       2.656 -20.758 -28.996  0.00  0.00    +0.142 HD
ENDBRANCH   5   6
BRANCH   5   8
ATOM      8  CB  TRP A   1       4.873 -19.506 -28.395  0.00  0.00    +0.054 C 
BRANCH   8   9
ATOM      9  CG  TRP A   1       6.094 -19.052 -27.624  0.00  0.00    -0.002 A 
ATOM     10  CD2 TRP A   1       6.336 -19.198 -26.201  0.00  0.00    +0.013 A 
ATOM     11  CE3 TRP A   1       5.601 -19.783 -25.123  0.00  0.00    +0.001 A 
ATOM     12  CZ3 TRP A   1       6.149 -19.728 -23.826  0.00  0.00    +0.000 A 
ATOM     13  CH2 TRP A   1       7.376 -19.079 -23.586  0.00  0.00    +0.001 A 
ATOM     14  CZ2 TRP A   1       8.118 -18.503 -24.616  0.00  0.00    +0.017 A 
ATOM     15  CE2 TRP A   1       7.594 -18.587 -25.923  0.00  0.00    +0.056 A 
ATOM     16  NE1 TRP A   1       8.070 -18.071 -27.111  0.00  0.00    -0.352 N 
ATOM     17  HE1 TRP A   1       8.959 -17.544 -27.227  0.00  0.00    +0.166 HD
ATOM     18  CD1 TRP A   1       7.169 -18.369 -28.130  0.00  0.00    +0.068 A 
ENDBRANCH   8   9
ENDBRANCH   5   8
ENDBRANCH   1   5
BRANCH   3  19
ATOM     19  CA  GLU A   2       5.918 -23.221 -25.939  0.00  0.00    +0.149 C 
BRANCH  19  20
ATOM     20  C   GLU A   2       7.279 -23.245 -25.320  0.00  0.00    +0.241 C 
ATOM     21  N   SER A   3       7.353 -23.309 -23.949  0.00  0.00    -0.296 N 
ATOM     22  H   SER A   3       6.488 -23.262 -23.373  0.00  0.00    +0.150 HD
ATOM     23  O   GLU A   2       8.284 -23.256 -26.072  0.00  0.00    -0.273 OA
BRANCH  21  24
ATOM     24  CA  SER A   3       8.671 -23.445 -23.303  0.00  0.00    +0.166 C 
BRANCH  24  25
ATOM     25  C   SER A   3       8.489 -23.984 -21.902  0.00  0.00    +0.229 C 
ATOM     26  O   SER A   3       7.610 -23.516 -21.179  0.00  0.00    -0.286 OA
ENDBRANCH  24  25
BRANCH  24  27
ATOM     27  CB  SER A   3       9.413 -22.099 -23.248  0.00  0.00    +0.165 C 
BRANCH  27  28
ATOM     28  OG  SER A   3      10.647 -22.229 -22.556  0.00  0.00    -0.380 OA
ATOM     29  H   SER A   3      11.218 -22.889 -23.023  0.00  0.00    +0.211 HD
ENDBRANCH  27  28
ENDBRANCH  24  27
ENDBRANCH  21  24
ENDBRANCH  19  20
BRANCH  19  30
ATOM     30  CB  GLU A   2       5.451 -24.662 -26.272  0.00  0.00    +0.041 C 
BRANCH  30  31
ATOM     31  CG  GLU A   2       5.244 -25.574 -25.073  0.00  0.00    +0.116 C 
BRANCH  31  32
ATOM     32  CD  GLU A   2       4.556 -26.860 -25.479  0.00  0.00    +0.365 C 
ATOM     33  OE2 GLU A   2       3.336 -26.987 -25.246  0.00  0.00    -0.246 OA
ATOM     34  OE1 GLU A   2       5.221 -27.705 -26.116  0.00  0.00    -0.246 OA
ENDBRANCH  31  32
ENDBRANCH  30  31
ENDBRANCH  19  30
ENDBRANCH   3  19
TORSDOF 13
REMARK  Name = ../refined-set-2016/4o04/4o04_pocket.pdb
REMARK  240 active torsions:
REMARK  status: ('A' for Active; 'I' for Inactive)
REMARK    1  A    between atoms: _1  and  _3
REMARK    2  A    between atoms: _3  and  _4
REMARK    3  A    between atoms: _3  and  _6
REMARK    4  A    between atoms: _6  and  _7
REMARK    5  A    between atoms: _13  and  _15
REMARK    6  A    between atoms: _15  and  _16
REMARK    7  A    between atoms: _15  and  _18
REMARK    8  A    between atoms: _18  and  _19
REMARK    9  A    between atoms: _22  and  _24
REMARK   10  A    between atoms: _24  and  _25
REMARK   11  A    between atoms: _24  and  _27
REMARK   12  A    between atoms: _27  and  _28
REMARK   13  A    between atoms: _31  and  _33
REMARK   14  A    between atoms: _33  and  _34
REMARK   15  A    between atoms: _33  and  _36
REMARK   16  A    between atoms: _36  and  _37
REMARK   17  A    between atoms: _37  and  _38
REMARK   18  A    between atoms: _41  and  _43
REMARK   19  A    between atoms: _43  and  _44
REMARK   20  A    between atoms: _43  and  _46
REMARK   21  A    between atoms: _46  and  _47
REMARK   22  A    between atoms: _50  and  _52
REMARK   23  A    between atoms: _52  and  _53
REMARK   24  A    between atoms: _52  and  _55
REMARK   25  A    between atoms: _55  and  _56
REMARK   26  A    between atoms: _59  and  _61
REMARK   27  A    between atoms: _61  and  _62
REMARK   28  A    between atoms: _61  and  _64
REMARK   29  A    between atoms: _64  and  _65
REMARK   30  A    between atoms: _67  and  _69
REMARK   31  A    between atoms: _69  and  _70
REMARK   32  A    between atoms: _69  and  _72
REMARK   33  A    between atoms: _72  and  _73
REMARK   34  A    between atoms: _78  and  _80
REMARK   35  A    between atoms: _80  and  _81
REMARK   36  A    between atoms: _80  and  _83
REMARK   37  A    between atoms: _83  and  _84
REMARK   38  A    between atoms: _86  and  _88
REMARK   39  A    between atoms: _88  and  _89
REMARK   40  A    between atoms: _88  and  _91
REMARK   41  A    between atoms: _91  and  _92
REMARK   42  A    between atoms: _94  and  _96
REMARK   43  A    between atoms: _96  and  _97
REMARK   44  A    between atoms: _96  and  _99
REMARK   45  A    between atoms: _99  and  _100
REMARK   46  A    between atoms: _103  and  _105
REMARK   47  A    between atoms: _105  and  _106
REMARK   48  A    between atoms: _109  and  _111
REMARK   49  A    between atoms: _111  and  _112
REMARK   50  A    between atoms: _111  and  _114
REMARK   51  A    between atoms: _114  and  _115
REMARK   52  A    between atoms: _118  and  _120
REMARK   53  A    between atoms: _120  and  _121
REMARK   54  A    between atoms: _120  and  _123
REMARK   55  A    between atoms: _123  and  _124
REMARK   56  A    between atoms: _124  and  _125
REMARK   57  A    between atoms: _125  and  _126
REMARK   58  A    between atoms: _126  and  _127
REMARK   59  A    between atoms: _131  and  _133
REMARK   60  A    between atoms: _133  and  _134
REMARK   61  A    between atoms: _133  and  _136
REMARK   62  A    between atoms: _136  and  _137
REMARK   63  A    between atoms: _140  and  _142
REMARK   64  A    between atoms: _142  and  _143
REMARK   65  A    between atoms: _142  and  _145
REMARK   66  A    between atoms: _148  and  _150
REMARK   67  A    between atoms: _150  and  _151
REMARK   68  A    between atoms: _150  and  _153
REMARK   69  A    between atoms: _153  and  _154
REMARK   70  A    between atoms: _157  and  _159
REMARK   71  A    between atoms: _159  and  _160
REMARK   72  A    between atoms: _159  and  _162
REMARK   73  A    between atoms: _162  and  _163
REMARK   74  A    between atoms: _166  and  _168
REMARK   75  A    between atoms: _168  and  _169
REMARK   76  A    between atoms: _171  and  _173
REMARK   77  A    between atoms: _173  and  _174
REMARK   78  A    between atoms: _173  and  _176
REMARK   79  A    between atoms: _176  and  _177
REMARK   80  A    between atoms: _180  and  _182
REMARK   81  A    between atoms: _182  and  _183
REMARK   82  A    between atoms: _185  and  _187
REMARK   83  A    between atoms: _187  and  _188
REMARK   84  A    between atoms: _187  and  _190
REMARK   85  A    between atoms: _190  and  _191
REMARK   86  A    between atoms: _191  and  _192
REMARK   87  A    between atoms: _194  and  _196
REMARK   88  A    between atoms: _196  and  _197
REMARK   89  A    between atoms: _196  and  _199
REMARK   90  A    between atoms: _199  and  _200
REMARK   91  A    between atoms: _203  and  _205
REMARK   92  A    between atoms: _205  and  _206
REMARK   93  A    between atoms: _205  and  _208
REMARK   94  A    between atoms: _208  and  _209
REMARK   95  A    between atoms: _209  and  _210
REMARK   96  A    between atoms: _210  and  _211
REMARK   97  A    between atoms: _211  and  _212
REMARK   98  A    between atoms: _216  and  _218
REMARK   99  A    between atoms: _218  and  _219
REMARK  100  A    between atoms: _222  and  _224
REMARK  101  A    between atoms: _224  and  _225
REMARK  102  A    between atoms: _224  and  _227
REMARK  103  A    between atoms: _227  and  _228
REMARK  104  A    between atoms: _231  and  _233
REMARK  105  A    between atoms: _233  and  _234
REMARK  106  A    between atoms: _233  and  _236
REMARK  107  A    between atoms: _236  and  _237
REMARK  108  A    between atoms: _240  and  _242
REMARK  109  A    between atoms: _242  and  _243
REMARK  110  A    between atoms: _242  and  _245
REMARK  111  A    between atoms: _245  and  _246
REMARK  112  A    between atoms: _249  and  _251
REMARK  113  A    between atoms: _251  and  _252
REMARK  114  A    between atoms: _251  and  _254
REMARK  115  A    between atoms: _254  and  _255
REMARK  116  A    between atoms: _260  and  _262
REMARK  117  A    between atoms: _262  and  _263
REMARK  118  A    between atoms: _262  and  _265
REMARK  119  A    between atoms: _265  and  _266
REMARK  120  A    between atoms: _271  and  _273
REMARK  121  A    between atoms: _273  and  _274
REMARK  122  A    between atoms: _273  and  _276
REMARK  123  A    between atoms: _276  and  _277
REMARK  124  A    between atoms: _280  and  _282
REMARK  125  A    between atoms: _282  and  _283
REMARK  126  A    between atoms: _285  and  _287
REMARK  127  A    between atoms: _287  and  _288
REMARK  128  A    between atoms: _287  and  _290
REMARK  129  A    between atoms: _290  and  _291
REMARK  130  A    between atoms: _294  and  _296
REMARK  131  A    between atoms: _296  and  _297
REMARK  132  A    between atoms: _296  and  _299
REMARK  133  A    between atoms: _299  and  _300
REMARK  134  A    between atoms: _303  and  _305
REMARK  135  A    between atoms: _305  and  _306
REMARK  136  A    between atoms: _309  and  _311
REMARK  137  A    between atoms: _311  and  _312
REMARK  138  A    between atoms: _311  and  _314
REMARK  139  A    between atoms: _314  and  _315
REMARK  140  A    between atoms: _315  and  _316
REMARK  141  A    between atoms: _316  and  _317
REMARK  142  A    between atoms: _317  and  _318
REMARK  143  A    between atoms: _322  and  _324
REMARK  144  A    between atoms: _324  and  _325
REMARK  145  A    between atoms: _327  and  _329
REMARK  146  A    between atoms: _329  and  _330
REMARK  147  A    between atoms: _329  and  _332
REMARK  148  A    between atoms: _332  and  _333
REMARK  149  A    between atoms: _336  and  _338
REMARK  150  A    between atoms: _338  and  _339
REMARK  151  A    between atoms: _341  and  _343
REMARK  152  A    between atoms: _343  and  _344
REMARK  153  A    between atoms: _343  and  _346
REMARK  154  A    between atoms: _346  and  _347
REMARK  155  A    between atoms: _353  and  _355
REMARK  156  A    between atoms: _355  and  _356
REMARK  157  A    between atoms: _358  and  _360
REMARK  158  A    between atoms: _360  and  _361
REMARK  159  A    between atoms: _360  and  _363
REMARK  160  A    between atoms: _366  and  _368
REMARK  161  A    between atoms: _368  and  _369
REMARK  162  A    between atoms: _371  and  _373
REMARK  163  A    between atoms: _373  and  _374
REMARK  164  A    between atoms: _373  and  _376
REMARK  165  A    between atoms: _376  and  _377
REMARK  166  A    between atoms: _383  and  _385
REMARK  167  A    between atoms: _385  and  _386
REMARK  168  A    between atoms: _385  and  _388
REMARK  169  A    between atoms: _388  and  _389
REMARK  170  A    between atoms: _394  and  _395
REMARK  171  A    between atoms: _397  and  _399
REMARK  172  A    between atoms: _399  and  _400
REMARK  173  A    between atoms: _399  and  _402
REMARK  174  A    between atoms: _402  and  _403
REMARK  175  A    between atoms: _408  and  _409
REMARK  176  A    between atoms: _411  and  _413
REMARK  177  A    between atoms: _413  and  _414
REMARK  178  A    between atoms: _413  and  _416
REMARK  179  A    between atoms: _419  and  _421
REMARK  180  A    between atoms: _421  and  _422
REMARK  181  A    between atoms: _421  and  _424
REMARK  182  A    between atoms: _424  and  _425
REMARK  183  A    between atoms: _428  and  _430
REMARK  184  A    between atoms: _430  and  _431
REMARK  185  A    between atoms: _430  and  _433
REMARK  186  A    between atoms: _436  and  _438
REMARK  187  A    between atoms: _438  and  _439
REMARK  188  A    between atoms: _438  and  _441
REMARK  189  A    between atoms: _441  and  _442
REMARK  190  A    between atoms: _445  and  _447
REMARK  191  A    between atoms: _447  and  _448
REMARK  192  A    between atoms: _447  and  _450
REMARK  193  A    between atoms: _450  and  _451
REMARK  194  A    between atoms: _454  and  _456
REMARK  195  A    between atoms: _456  and  _457
REMARK  196  A    between atoms: _456  and  _459
REMARK  197  A    between atoms: _459  and  _460
REMARK  198  A    between atoms: _460  and  _461
REMARK  199  A    between atoms: _461  and  _462
REMARK  200  A    between atoms: _462  and  _463
REMARK  201  A    between atoms: _467  and  _469
REMARK  202  A    between atoms: _469  and  _470
REMARK  203  A    between atoms: _469  and  _472
REMARK  204  A    between atoms: _472  and  _473
REMARK  205  A    between atoms: _483  and  _485
REMARK  206  A    between atoms: _485  and  _486
REMARK  207  A    between atoms: _485  and  _488
REMARK  208  A    between atoms: _488  and  _489
REMARK  209  A    between atoms: _489  and  _490
REMARK  210  A    between atoms: _493  and  _495
REMARK  211  A    between atoms: _495  and  _496
REMARK  212  A    between atoms: _495  and  _498
REMARK  213  A    between atoms: _498  and  _499
REMARK  214  A    between atoms: _501  and  _503
REMARK  215  A    between atoms: _503  and  _504
REMARK  216  A    between atoms: _503  and  _506
REMARK  217  A    between atoms: _506  and  _507
REMARK  218  A    between atoms: _513  and  _515
REMARK  219  A    between atoms: _515  and  _516
REMARK  220  A    between atoms: _515  and  _518
REMARK  221  A    between atoms: _518  and  _519
REMARK  222  A    between atoms: _522  and  _524
REMARK  223  A    between atoms: _524  and  _525
REMARK  224  A    between atoms: _524  and  _527
REMARK  225  A    between atoms: _530  and  _532
REMARK  226  A    between atoms: _532  and  _533
REMARK  227  A    between atoms: _535  and  _537
REMARK  228  A    between atoms: _537  and  _538
REMARK  229  A    between atoms: _537  and  _540
REMARK  230  A    between atoms: _540  and  _541
REMARK  231  A    between atoms: _544  and  _546
REMARK  232  A    between atoms: _546  and  _547
REMARK  233  A    between atoms: _546  and  _549
REMARK  234  A    between atoms: _549  and  _550
REMARK  235  A    between atoms: _550  and  _551
REMARK  236  A    between atoms: _551  and  _552
REMARK  237  A    between atoms: _552  and  _553
REMARK  238  A    between atoms: _557  and  _559
REMARK  239  A    between atoms: _559  and  _560
REMARK  240  A    between atoms: _559  and  _562
REMARK                            x       y       z     vdW  Elec       q    Type
REMARK                         _______ _______ _______ _____ _____    ______ ____
ROOT
ATOM      1  CA  THR A   2       9.545 -23.766 -29.736  0.00  0.00    +0.176 C 
ENDROOT
BRANCH   1   3
ATOM      2  C   PHE A   1      11.105 -22.869 -28.129  0.00  0.00    +0.239 C 
ATOM      3  N   THR A   2       9.852 -23.243 -28.388  0.00  0.00    -0.295 N 
ATOM      4  H   THR A   2       9.111 -23.169 -27.662  0.00  0.00    +0.150 HD
ATOM      5  O   PHE A   1      12.003 -22.875 -28.963  0.00  0.00    -0.274 OA
BRANCH   2   6
ATOM      6  CA  PHE A   1      11.360 -22.332 -26.750  0.00  0.00    +0.149 C 
BRANCH   6   7
ATOM      7  N   PHE A   1      12.782 -22.391 -26.491  0.00  0.00    -0.238 NA
ATOM      8  H   PHE A   1      13.431 -22.194 -27.280  0.00  0.00    +0.142 HD
ENDBRANCH   6   7
BRANCH   6   9
ATOM      9  CB  PHE A   1      10.776 -20.917 -26.617  0.00  0.00    +0.053 C 
BRANCH   9  10
ATOM     10  CG  PHE A   1      11.252 -19.839 -27.561  0.00  0.00    -0.020 A 
ATOM     11  CD2 PHE A   1      12.363 -19.058 -27.241  0.00  0.00    -0.004 A 
ATOM     12  CE2 PHE A   1      12.775 -17.996 -28.075  0.00  0.00    -0.000 A 
ATOM     13  CZ  PHE A   1      12.088 -17.739 -29.257  0.00  0.00    -0.000 A 
ATOM     14  CE1 PHE A   1      10.990 -18.520 -29.606  0.00  0.00    -0.000 A 
ATOM     15  CD1 PHE A   1      10.558 -19.563 -28.762  0.00  0.00    -0.004 A 
ENDBRANCH   9  10
ENDBRANCH   6   9
ENDBRANCH   2   6
ENDBRANCH   1   3
BRANCH   1  16
ATOM     16  C   THR A   2       8.412 -22.931 -30.318  0.00  0.00    +0.243 C 
ATOM     17  O   THR A   2       7.643 -22.372 -29.585  0.00  0.00    -0.273 OA
ATOM     18  N   VAL A   3       8.383 -22.840 -31.666  0.00  0.00    -0.298 N 
ATOM     19  H   VAL A   3       9.156 -23.255 -32.224  0.00  0.00    +0.150 HD
BRANCH  18  20
ATOM     20  CA  VAL A   3       7.285 -22.169 -32.348  0.00  0.00    +0.137 C 
BRANCH  20  21
ATOM     21  CB  VAL A   3       7.611 -20.744 -32.875  0.00  0.00    +0.026 C 
ATOM     22  CG2 VAL A   3       7.945 -19.794 -31.723  0.00  0.00    +0.002 C 
ATOM     23  CG1 VAL A   3       6.457 -20.169 -33.706  0.00  0.00    +0.002 C 
ENDBRANCH  20  21
BRANCH  20  24
ATOM     24  C   VAL A   3       6.859 -23.151 -33.503  0.00  0.00    +0.227 C 
ATOM     25  O   VAL A   3       7.730 -23.631 -34.268  0.00  0.00    -0.286 OA
ENDBRANCH  20  24
ENDBRANCH  18  20
ENDBRANCH   1  16
BRANCH   1  26
ATOM     26  CB  THR A   2       9.135 -25.217 -29.716  0.00  0.00    +0.137 C 
ATOM     27  CG2 THR A   2      10.247 -26.201 -29.203  0.00  0.00    +0.034 C 
BRANCH  26  28
ATOM     28  OG1 THR A   2       7.952 -25.396 -28.979  0.00  0.00    -0.382 OA
ATOM     29  HG1 THR A   2       7.225 -24.866 -29.391  0.00  0.00    +0.210 HD
ENDBRANCH  26  28
ENDBRANCH   1  26
TORSDOF 11
REMARK  Name = ../refined-set-2016/4o04/4o04_pocket.pdb
REMARK  240 active torsions:
REMARK  status: ('A' for Active; 'I' for Inactive)
REMARK    1  A    between atoms: _1  and  _3
REMARK    2  A    between atoms: _3  and  _4
REMARK    3  A    between atoms: _3  and  _6
REMARK    4  A    between atoms: _6  and  _7
REMARK    5  A    between atoms: _13  and  _15
REMARK    6  A    between atoms: _15  and  _16
REMARK    7  A    between atoms: _15  and  _18
REMARK    8  A    between atoms: _18  and  _19
REMARK    9  A    between atoms: _22  and  _24
REMARK   10  A    between atoms: _24  and  _25
REMARK   11  A    between atoms: _24  and  _27
REMARK   12  A    between atoms: _27  and  _28
REMARK   13  A    between atoms: _31  and  _33
REMARK   14  A    between atoms: _33  and  _34
REMARK   15  A    between atoms: _33  and  _36
REMARK   16  A    between atoms: _36  and  _37
REMARK   17  A    between atoms: _37  and  _38
REMARK   18  A    between atoms: _41  and  _43
REMARK   19  A    between atoms: _43  and  _44
REMARK   20  A    between atoms: _43  and  _46
REMARK   21  A    between atoms: _46  and  _47
REMARK   22  A    between atoms: _50  and  _52
REMARK   23  A    between atoms: _52  and  _53
REMARK   24  A    between atoms: _52  and  _55
REMARK   25  A    between atoms: _55  and  _56
REMARK   26  A    between atoms: _59  and  _61
REMARK   27  A    between atoms: _61  and  _62
REMARK   28  A    between atoms: _61  and  _64
REMARK   29  A    between atoms: _64  and  _65
REMARK   30  A    between atoms: _67  and  _69
REMARK   31  A    between atoms: _69  and  _70
REMARK   32  A    between atoms: _69  and  _72
REMARK   33  A    between atoms: _72  and  _73
REMARK   34  A    between atoms: _78  and  _80
REMARK   35  A    between atoms: _80  and  _81
REMARK   36  A    between atoms: _80  and  _83
REMARK   37  A    between atoms: _83  and  _84
REMARK   38  A    between atoms: _86  and  _88
REMARK   39  A    between atoms: _88  and  _89
REMARK   40  A    between atoms: _88  and  _91
REMARK   41  A    between atoms: _91  and  _92
REMARK   42  A    between atoms: _94  and  _96
REMARK   43  A    between atoms: _96  and  _97
REMARK   44  A    between atoms: _96  and  _99
REMARK   45  A    between atoms: _99  and  _100
REMARK   46  A    between atoms: _103  and  _105
REMARK   47  A    between atoms: _105  and  _106
REMARK   48  A    between atoms: _109  and  _111
REMARK   49  A    between atoms: _111  and  _112
REMARK   50  A    between atoms: _111  and  _114
REMARK   51  A    between atoms: _114  and  _115
REMARK   52  A    between atoms: _118  and  _120
REMARK   53  A    between atoms: _120  and  _121
REMARK   54  A    between atoms: _120  and  _123
REMARK   55  A    between atoms: _123  and  _124
REMARK   56  A    between atoms: _124  and  _125
REMARK   57  A    between atoms: _125  and  _126
REMARK   58  A    between atoms: _126  and  _127
REMARK   59  A    between atoms: _131  and  _133
REMARK   60  A    between atoms: _133  and  _134
REMARK   61  A    between atoms: _133  and  _136
REMARK   62  A    between atoms: _136  and  _137
REMARK   63  A    between atoms: _140  and  _142
REMARK   64  A    between atoms: _142  and  _143
REMARK   65  A    between atoms: _142  and  _145
REMARK   66  A    between atoms: _148  and  _150
REMARK   67  A    between atoms: _150  and  _151
REMARK   68  A    between atoms: _150  and  _153
REMARK   69  A    between atoms: _153  and  _154
REMARK   70  A    between atoms: _157  and  _159
REMARK   71  A    between atoms: _159  and  _160
REMARK   72  A    between atoms: _159  and  _162
REMARK   73  A    between atoms: _162  and  _163
REMARK   74  A    between atoms: _166  and  _168
REMARK   75  A    between atoms: _168  and  _169
REMARK   76  A    between atoms: _171  and  _173
REMARK   77  A    between atoms: _173  and  _174
REMARK   78  A    between atoms: _173  and  _176
REMARK   79  A    between atoms: _176  and  _177
REMARK   80  A    between atoms: _180  and  _182
REMARK   81  A    between atoms: _182  and  _183
REMARK   82  A    between atoms: _185  and  _187
REMARK   83  A    between atoms: _187  and  _188
REMARK   84  A    between atoms: _187  and  _190
REMARK   85  A    between atoms: _190  and  _191
REMARK   86  A    between atoms: _191  and  _192
REMARK   87  A    between atoms: _194  and  _196
REMARK   88  A    between atoms: _196  and  _197
REMARK   89  A    between atoms: _196  and  _199
REMARK   90  A    between atoms: _199  and  _200
REMARK   91  A    between atoms: _203  and  _205
REMARK   92  A    between atoms: _205  and  _206
REMARK   93  A    between atoms: _205  and  _208
REMARK   94  A    between atoms: _208  and  _209
REMARK   95  A    between atoms: _209  and  _210
REMARK   96  A    between atoms: _210  and  _211
REMARK   97  A    between atoms: _211  and  _212
REMARK   98  A    between atoms: _216  and  _218
REMARK   99  A    between atoms: _218  and  _219
REMARK  100  A    between atoms: _222  and  _224
REMARK  101  A    between atoms: _224  and  _225
REMARK  102  A    between atoms: _224  and  _227
REMARK  103  A    between atoms: _227  and  _228
REMARK  104  A    between atoms: _231  and  _233
REMARK  105  A    between atoms: _233  and  _234
REMARK  106  A    between atoms: _233  and  _236
REMARK  107  A    between atoms: _236  and  _237
REMARK  108  A    between atoms: _240  and  _242
REMARK  109  A    between atoms: _242  and  _243
REMARK  110  A    between atoms: _242  and  _245
REMARK  111  A    between atoms: _245  and  _246
REMARK  112  A    between atoms: _249  and  _251
REMARK  113  A    between atoms: _251  and  _252
REMARK  114  A    between atoms: _251  and  _254
REMARK  115  A    between atoms: _254  and  _255
REMARK  116  A    between atoms: _260  and  _262
REMARK  117  A    between atoms: _262  and  _263
REMARK  118  A    between atoms: _262  and  _265
REMARK  119  A    between atoms: _265  and  _266
REMARK  120  A    between atoms: _271  and  _273
REMARK  121  A    between atoms: _273  and  _274
REMARK  122  A    between atoms: _273  and  _276
REMARK  123  A    between atoms: _276  and  _277
REMARK  124  A    between atoms: _280  and  _282
REMARK  125  A    between atoms: _282  and  _283
REMARK  126  A    between atoms: _285  and  _287
REMARK  127  A    between atoms: _287  and  _288
REMARK  128  A    between atoms: _287  and  _290
REMARK  129  A    between atoms: _290  and  _291
REMARK  130  A    between atoms: _294  and  _296
REMARK  131  A    between atoms: _296  and  _297
REMARK  132  A    between atoms: _296  and  _299
REMARK  133  A    between atoms: _299  and  _300
REMARK  134  A    between atoms: _303  and  _305
REMARK  135  A    between atoms: _305  and  _306
REMARK  136  A    between atoms: _309  and  _311
REMARK  137  A    between atoms: _311  and  _312
REMARK  138  A    between atoms: _311  and  _314
REMARK  139  A    between atoms: _314  and  _315
REMARK  140  A    between atoms: _315  and  _316
REMARK  141  A    between atoms: _316  and  _317
REMARK  142  A    between atoms: _317  and  _318
REMARK  143  A    between atoms: _322  and  _324
REMARK  144  A    between atoms: _324  and  _325
REMARK  145  A    between atoms: _327  and  _329
REMARK  146  A    between atoms: _329  and  _330
REMARK  147  A    between atoms: _329  and  _332
REMARK  148  A    between atoms: _332  and  _333
REMARK  149  A    between atoms: _336  and  _338
REMARK  150  A    between atoms: _338  and  _339
REMARK  151  A    between atoms: _341  and  _343
REMARK  152  A    between atoms: _343  and  _344
REMARK  153  A    between atoms: _343  and  _346
REMARK  154  A    between atoms: _346  and  _347
REMARK  155  A    between atoms: _353  and  _355
REMARK  156  A    between atoms: _355  and  _356
REMARK  157  A    between atoms: _358  and  _360
REMARK  158  A    between atoms: _360  and  _361
REMARK  159  A    between atoms: _360  and  _363
REMARK  160  A    between atoms: _366  and  _368
REMARK  161  A    between atoms: _368  and  _369
REMARK  162  A    between atoms: _371  and  _373
REMARK  163  A    between atoms: _373  and  _374
REMARK  164  A    between atoms: _373  and  _376
REMARK  165  A    between atoms: _376  and  _377
REMARK  166  A    between atoms: _383  and  _385
REMARK  167  A    between atoms: _385  and  _386
REMARK  168  A    between atoms: _385  and  _388
REMARK  169  A    between atoms: _388  and  _389
REMARK  170  A    between atoms: _394  and  _395
REMARK  171  A    between atoms: _397  and  _399
REMARK  172  A    between atoms: _399  and  _400
REMARK  173  A    between atoms: _399  and  _402
REMARK  174  A    between atoms: _402  and  _403
REMARK  175  A    between atoms: _408  and  _409
REMARK  176  A    between atoms: _411  and  _413
REMARK  177  A    between atoms: _413  and  _414
REMARK  178  A    between atoms: _413  and  _416
REMARK  179  A    between atoms: _419  and  _421
REMARK  180  A    between atoms: _421  and  _422
REMARK  181  A    between atoms: _421  and  _424
REMARK  182  A    between atoms: _424  and  _425
REMARK  183  A    between atoms: _428  and  _430
REMARK  184  A    between atoms: _430  and  _431
REMARK  185  A    between atoms: _430  and  _433
REMARK  186  A    between atoms: _436  and  _438
REMARK  187  A    between atoms: _438  and  _439
REMARK  188  A    between atoms: _438  and  _441
REMARK  189  A    between atoms: _441  and  _442
REMARK  190  A    between atoms: _445  and  _447
REMARK  191  A    between atoms: _447  and  _448
REMARK  192  A    between atoms: _447  and  _450
REMARK  193  A    between atoms: _450  and  _451
REMARK  194  A    between atoms: _454  and  _456
REMARK  195  A    between atoms: _456  and  _457
REMARK  196  A    between atoms: _456  and  _459
REMARK  197  A    between atoms: _459  and  _460
REMARK  198  A    between atoms: _460  and  _461
REMARK  199  A    between atoms: _461  and  _462
REMARK  200  A    between atoms: _462  and  _463
REMARK  201  A    between atoms: _467  and  _469
REMARK  202  A    between atoms: _469  and  _470
REMARK  203  A    between atoms: _469  and  _472
REMARK  204  A    between atoms: _472  and  _473
REMARK  205  A    between atoms: _483  and  _485
REMARK  206  A    between atoms: _485  and  _486
REMARK  207  A    between atoms: _485  and  _488
REMARK  208  A    between atoms: _488  and  _489
REMARK  209  A    between atoms: _489  and  _490
REMARK  210  A    between atoms: _493  and  _495
REMARK  211  A    between atoms: _495  and  _496
REMARK  212  A    between atoms: _495  and  _498
REMARK  213  A    between atoms: _498  and  _499
REMARK  214  A    between atoms: _501  and  _503
REMARK  215  A    between atoms: _503  and  _504
REMARK  216  A    between atoms: _503  and  _506
REMARK  217  A    between atoms: _506  and  _507
REMARK  218  A    between atoms: _513  and  _515
REMARK  219  A    between atoms: _515  and  _516
REMARK  220  A    between atoms: _515  and  _518
REMARK  221  A    between atoms: _518  and  _519
REMARK  222  A    between atoms: _522  and  _524
REMARK  223  A    between atoms: _524  and  _525
REMARK  224  A    between atoms: _524  and  _527
REMARK  225  A    between atoms: _530  and  _532
REMARK  226  A    between atoms: _532  and  _533
REMARK  227  A    between atoms: _535  and  _537
REMARK  228  A    between atoms: _537  and  _538
REMARK  229  A    between atoms: _537  and  _540
REMARK  230  A    between atoms: _540  and  _541
REMARK  231  A    between atoms: _544  and  _546
REMARK  232  A    between atoms: _546  and  _547
REMARK  233  A    between atoms: _546  and  _549
REMARK  234  A    between atoms: _549  and  _550
REMARK  235  A    between atoms: _550  and  _551
REMARK  236  A    between atoms: _551  and  _552
REMARK  237  A    between atoms: _552  and  _553
REMARK  238  A    between atoms: _557  and  _559
REMARK  239  A    between atoms: _559  and  _560
REMARK  240  A    between atoms: _559  and  _562
REMARK                            x       y       z     vdW  Elec       q    Type
REMARK                         _______ _______ _______ _____ _____    ______ ____
ROOT
ATOM      1  CA  LYS A   3      -4.589 -18.279 -25.218  0.00  0.00    +0.149 C 
ENDROOT
BRANCH   1   4
ATOM      2  C   THR A   2      -4.824 -16.146 -26.413  0.00  0.00    +0.243 C 
ATOM      3  O   THR A   2      -5.689 -15.719 -25.626  0.00  0.00    -0.273 OA
ATOM      4  N   LYS A   3      -4.252 -17.364 -26.305  0.00  0.00    -0.297 N 
ATOM      5  H   LYS A   3      -3.552 -17.659 -27.015  0.00  0.00    +0.150 HD
BRANCH   2   6
ATOM      6  CA  THR A   2      -4.264 -15.264 -27.485  0.00  0.00    +0.176 C 
BRANCH   6   8
ATOM      7  C   GLY A   1      -5.339 -14.229 -29.403  0.00  0.00    +0.240 C 
ATOM      8  N   THR A   2      -5.295 -14.435 -28.083  0.00  0.00    -0.295 N 
ATOM      9  H   THR A   2      -6.012 -13.993 -27.473  0.00  0.00    +0.150 HD
ATOM     10  O   GLY A   1      -4.560 -14.749 -30.204  0.00  0.00    -0.274 OA
BRANCH   7  11
ATOM     11  CA  GLY A   1      -6.431 -13.319 -29.886  0.00  0.00    +0.169 C 
BRANCH  11  12
ATOM     12  N   GLY A   1      -6.666 -13.403 -31.320  0.00  0.00    -0.236 NA
ATOM     13  H   GLY A   1      -5.879 -13.337 -31.997  0.00  0.00    +0.142 HD
ENDBRANCH  11  12
ENDBRANCH   7  11
ENDBRANCH   6   8
BRANCH   6  14
ATOM     14  CB  THR A   2      -3.144 -14.317 -26.919  0.00  0.00    +0.137 C 
ATOM     15  CG2 THR A   2      -1.981 -15.068 -26.178  0.00  0.00    +0.034 C 
BRANCH  14  16
ATOM     16  OG1 THR A   2      -2.607 -13.531 -27.987  0.00  0.00    -0.382 OA
ATOM     17  HG1 THR A   2      -2.220 -14.130 -28.674  0.00  0.00    +0.210 HD
ENDBRANCH  14  16
ENDBRANCH   6  14
ENDBRANCH   2   6
ENDBRANCH   1   4
BRANCH   1  18
ATOM     18  C   LYS A   3      -3.245 -18.585 -24.530  0.00  0.00    +0.241 C 
ATOM     19  N   VAL A   4      -3.141 -18.342 -23.230  0.00  0.00    -0.298 N 
ATOM     20  H   VAL A   4      -3.942 -17.904 -22.731  0.00  0.00    +0.150 HD
ATOM     21  O   LYS A   3      -2.330 -19.086 -25.195  0.00  0.00    -0.273 OA
BRANCH  19  22
ATOM     22  CA  VAL A   4      -1.923 -18.675 -22.475  0.00  0.00    +0.137 C 
BRANCH  22  23
ATOM     23  CB  VAL A   4      -1.408 -17.509 -21.609  0.00  0.00    +0.026 C 
ATOM     24  CG2 VAL A   4      -0.206 -17.968 -20.736  0.00  0.00    +0.002 C 
ATOM     25  CG1 VAL A   4      -1.051 -16.296 -22.504  0.00  0.00    +0.002 C 
ENDBRANCH  22  23
BRANCH  22  26
ATOM     26  C   VAL A   4      -2.325 -19.900 -21.610  0.00  0.00    +0.227 C 
ATOM     27  O   VAL A   4      -3.148 -19.765 -20.684  0.00  0.00    -0.286 OA
ENDBRANCH  22  26
ENDBRANCH  19  22
ENDBRANCH   1  18
BRANCH   1  28
ATOM     28  CB  LYS A   3      -5.176 -19.616 -25.724  0.00  0.00    +0.029 C 
BRANCH  28  29
ATOM     29  CG  LYS A   3      -6.500 -19.605 -26.432  0.00  0.00    +0.000 C 
BRANCH  29  30
ATOM     30  CD  LYS A   3      -6.950 -21.083 -26.552  0.00  0.00    -0.024 C 
BRANCH  30  31
ATOM     31  CE  LYS A   3      -8.283 -21.221 -27.245  0.00  0.00    -0.086 C 
BRANCH  31  32
ATOM     32  NZ  LYS A   3      -8.626 -22.663 -27.466  0.00  0.00    +0.380 N 
ATOM     33  HZ1 LYS A   3      -8.674 -23.151 -26.549  0.00  0.00    -0.089 HD
ATOM     34  HZ2 LYS A   3      -9.547 -22.730 -27.944  0.00  0.00    -0.089 HD
ATOM     35  HZ3 LYS A   3      -7.894 -23.105 -28.058  0.00  0.00    -0.089 HD
ENDBRANCH  31  32
ENDBRANCH  30  31
ENDBRANCH  29  30
ENDBRANCH  28  29
ENDBRANCH   1  28
TORSDOF 16
REMARK  Name = ../refined-set-2016/4o04/4o04_pocket.pdb
REMARK  240 active torsions:
REMARK  status: ('A' for Active; 'I' for Inactive)
REMARK    1  A    between atoms: _1  and  _3
REMARK    2  A    between atoms: _3  and  _4
REMARK    3  A    between atoms: _3  and  _6
REMARK    4  A    between atoms: _6  and  _7
REMARK    5  A    between atoms: _13  and  _15
REMARK    6  A    between atoms: _15  and  _16
REMARK    7  A    between atoms: _15  and  _18
REMARK    8  A    between atoms: _18  and  _19
REMARK    9  A    between atoms: _22  and  _24
REMARK   10  A    between atoms: _24  and  _25
REMARK   11  A    between atoms: _24  and  _27
REMARK   12  A    between atoms: _27  and  _28
REMARK   13  A    between atoms: _31  and  _33
REMARK   14  A    between atoms: _33  and  _34
REMARK   15  A    between atoms: _33  and  _36
REMARK   16  A    between atoms: _36  and  _37
REMARK   17  A    between atoms: _37  and  _38
REMARK   18  A    between atoms: _41  and  _43
REMARK   19  A    between atoms: _43  and  _44
REMARK   20  A    between atoms: _43  and  _46
REMARK   21  A    between atoms: _46  and  _47
REMARK   22  A    between atoms: _50  and  _52
REMARK   23  A    between atoms: _52  and  _53
REMARK   24  A    between atoms: _52  and  _55
REMARK   25  A    between atoms: _55  and  _56
REMARK   26  A    between atoms: _59  and  _61
REMARK   27  A    between atoms: _61  and  _62
REMARK   28  A    between atoms: _61  and  _64
REMARK   29  A    between atoms: _64  and  _65
REMARK   30  A    between atoms: _67  and  _69
REMARK   31  A    between atoms: _69  and  _70
REMARK   32  A    between atoms: _69  and  _72
REMARK   33  A    between atoms: _72  and  _73
REMARK   34  A    between atoms: _78  and  _80
REMARK   35  A    between atoms: _80  and  _81
REMARK   36  A    between atoms: _80  and  _83
REMARK   37  A    between atoms: _83  and  _84
REMARK   38  A    between atoms: _86  and  _88
REMARK   39  A    between atoms: _88  and  _89
REMARK   40  A    between atoms: _88  and  _91
REMARK   41  A    between atoms: _91  and  _92
REMARK   42  A    between atoms: _94  and  _96
REMARK   43  A    between atoms: _96  and  _97
REMARK   44  A    between atoms: _96  and  _99
REMARK   45  A    between atoms: _99  and  _100
REMARK   46  A    between atoms: _103  and  _105
REMARK   47  A    between atoms: _105  and  _106
REMARK   48  A    between atoms: _109  and  _111
REMARK   49  A    between atoms: _111  and  _112
REMARK   50  A    between atoms: _111  and  _114
REMARK   51  A    between atoms: _114  and  _115
REMARK   52  A    between atoms: _118  and  _120
REMARK   53  A    between atoms: _120  and  _121
REMARK   54  A    between atoms: _120  and  _123
REMARK   55  A    between atoms: _123  and  _124
REMARK   56  A    between atoms: _124  and  _125
REMARK   57  A    between atoms: _125  and  _126
REMARK   58  A    between atoms: _126  and  _127
REMARK   59  A    between atoms: _131  and  _133
REMARK   60  A    between atoms: _133  and  _134
REMARK   61  A    between atoms: _133  and  _136
REMARK   62  A    between atoms: _136  and  _137
REMARK   63  A    between atoms: _140  and  _142
REMARK   64  A    between atoms: _142  and  _143
REMARK   65  A    between atoms: _142  and  _145
REMARK   66  A    between atoms: _148  and  _150
REMARK   67  A    between atoms: _150  and  _151
REMARK   68  A    between atoms: _150  and  _153
REMARK   69  A    between atoms: _153  and  _154
REMARK   70  A    between atoms: _157  and  _159
REMARK   71  A    between atoms: _159  and  _160
REMARK   72  A    between atoms: _159  and  _162
REMARK   73  A    between atoms: _162  and  _163
REMARK   74  A    between atoms: _166  and  _168
REMARK   75  A    between atoms: _168  and  _169
REMARK   76  A    between atoms: _171  and  _173
REMARK   77  A    between atoms: _173  and  _174
REMARK   78  A    between atoms: _173  and  _176
REMARK   79  A    between atoms: _176  and  _177
REMARK   80  A    between atoms: _180  and  _182
REMARK   81  A    between atoms: _182  and  _183
REMARK   82  A    between atoms: _185  and  _187
REMARK   83  A    between atoms: _187  and  _188
REMARK   84  A    between atoms: _187  and  _190
REMARK   85  A    between atoms: _190  and  _191
REMARK   86  A    between atoms: _191  and  _192
REMARK   87  A    between atoms: _194  and  _196
REMARK   88  A    between atoms: _196  and  _197
REMARK   89  A    between atoms: _196  and  _199
REMARK   90  A    between atoms: _199  and  _200
REMARK   91  A    between atoms: _203  and  _205
REMARK   92  A    between atoms: _205  and  _206
REMARK   93  A    between atoms: _205  and  _208
REMARK   94  A    between atoms: _208  and  _209
REMARK   95  A    between atoms: _209  and  _210
REMARK   96  A    between atoms: _210  and  _211
REMARK   97  A    between atoms: _211  and  _212
REMARK   98  A    between atoms: _216  and  _218
REMARK   99  A    between atoms: _218  and  _219
REMARK  100  A    between atoms: _222  and  _224
REMARK  101  A    between atoms: _224  and  _225
REMARK  102  A    between atoms: _224  and  _227
REMARK  103  A    between atoms: _227  and  _228
REMARK  104  A    between atoms: _231  and  _233
REMARK  105  A    between atoms: _233  and  _234
REMARK  106  A    between atoms: _233  and  _236
REMARK  107  A    between atoms: _236  and  _237
REMARK  108  A    between atoms: _240  and  _242
REMARK  109  A    between atoms: _242  and  _243
REMARK  110  A    between atoms: _242  and  _245
REMARK  111  A    between atoms: _245  and  _246
REMARK  112  A    between atoms: _249  and  _251
REMARK  113  A    between atoms: _251  and  _252
REMARK  114  A    between atoms: _251  and  _254
REMARK  115  A    between atoms: _254  and  _255
REMARK  116  A    between atoms: _260  and  _262
REMARK  117  A    between atoms: _262  and  _263
REMARK  118  A    between atoms: _262  and  _265
REMARK  119  A    between atoms: _265  and  _266
REMARK  120  A    between atoms: _271  and  _273
REMARK  121  A    between atoms: _273  and  _274
REMARK  122  A    between atoms: _273  and  _276
REMARK  123  A    between atoms: _276  and  _277
REMARK  124  A    between atoms: _280  and  _282
REMARK  125  A    between atoms: _282  and  _283
REMARK  126  A    between atoms: _285  and  _287
REMARK  127  A    between atoms: _287  and  _288
REMARK  128  A    between atoms: _287  and  _290
REMARK  129  A    between atoms: _290  and  _291
REMARK  130  A    between atoms: _294  and  _296
REMARK  131  A    between atoms: _296  and  _297
REMARK  132  A    between atoms: _296  and  _299
REMARK  133  A    between atoms: _299  and  _300
REMARK  134  A    between atoms: _303  and  _305
REMARK  135  A    between atoms: _305  and  _306
REMARK  136  A    between atoms: _309  and  _311
REMARK  137  A    between atoms: _311  and  _312
REMARK  138  A    between atoms: _311  and  _314
REMARK  139  A    between atoms: _314  and  _315
REMARK  140  A    between atoms: _315  and  _316
REMARK  141  A    between atoms: _316  and  _317
REMARK  142  A    between atoms: _317  and  _318
REMARK  143  A    between atoms: _322  and  _324
REMARK  144  A    between atoms: _324  and  _325
REMARK  145  A    between atoms: _327  and  _329
REMARK  146  A    between atoms: _329  and  _330
REMARK  147  A    between atoms: _329  and  _332
REMARK  148  A    between atoms: _332  and  _333
REMARK  149  A    between atoms: _336  and  _338
REMARK  150  A    between atoms: _338  and  _339
REMARK  151  A    between atoms: _341  and  _343
REMARK  152  A    between atoms: _343  and  _344
REMARK  153  A    between atoms: _343  and  _346
REMARK  154  A    between atoms: _346  and  _347
REMARK  155  A    between atoms: _353  and  _355
REMARK  156  A    between atoms: _355  and  _356
REMARK  157  A    between atoms: _358  and  _360
REMARK  158  A    between atoms: _360  and  _361
REMARK  159  A    between atoms: _360  and  _363
REMARK  160  A    between atoms: _366  and  _368
REMARK  161  A    between atoms: _368  and  _369
REMARK  162  A    between atoms: _371  and  _373
REMARK  163  A    between atoms: _373  and  _374
REMARK  164  A    between atoms: _373  and  _376
REMARK  165  A    between atoms: _376  and  _377
REMARK  166  A    between atoms: _383  and  _385
REMARK  167  A    between atoms: _385  and  _386
REMARK  168  A    between atoms: _385  and  _388
REMARK  169  A    between atoms: _388  and  _389
REMARK  170  A    between atoms: _394  and  _395
REMARK  171  A    between atoms: _397  and  _399
REMARK  172  A    between atoms: _399  and  _400
REMARK  173  A    between atoms: _399  and  _402
REMARK  174  A    between atoms: _402  and  _403
REMARK  175  A    between atoms: _408  and  _409
REMARK  176  A    between atoms: _411  and  _413
REMARK  177  A    between atoms: _413  and  _414
REMARK  178  A    between atoms: _413  and  _416
REMARK  179  A    between atoms: _419  and  _421
REMARK  180  A    between atoms: _421  and  _422
REMARK  181  A    between atoms: _421  and  _424
REMARK  182  A    between atoms: _424  and  _425
REMARK  183  A    between atoms: _428  and  _430
REMARK  184  A    between atoms: _430  and  _431
REMARK  185  A    between atoms: _430  and  _433
REMARK  186  A    between atoms: _436  and  _438
REMARK  187  A    between atoms: _438  and  _439
REMARK  188  A    between atoms: _438  and  _441
REMARK  189  A    between atoms: _441  and  _442
REMARK  190  A    between atoms: _445  and  _447
REMARK  191  A    between atoms: _447  and  _448
REMARK  192  A    between atoms: _447  and  _450
REMARK  193  A    between atoms: _450  and  _451
REMARK  194  A    between atoms: _454  and  _456
REMARK  195  A    between atoms: _456  and  _457
REMARK  196  A    between atoms: _456  and  _459
REMARK  197  A    between atoms: _459  and  _460
REMARK  198  A    between atoms: _460  and  _461
REMARK  199  A    between atoms: _461  and  _462
REMARK  200  A    between atoms: _462  and  _463
REMARK  201  A    between atoms: _467  and  _469
REMARK  202  A    between atoms: _469  and  _470
REMARK  203  A    between atoms: _469  and  _472
REMARK  204  A    between atoms: _472  and  _473
REMARK  205  A    between atoms: _483  and  _485
REMARK  206  A    between atoms: _485  and  _486
REMARK  207  A    between atoms: _485  and  _488
REMARK  208  A    between atoms: _488  and  _489
REMARK  209  A    between atoms: _489  and  _490
REMARK  210  A    between atoms: _493  and  _495
REMARK  211  A    between atoms: _495  and  _496
REMARK  212  A    between atoms: _495  and  _498
REMARK  213  A    between atoms: _498  and  _499
REMARK  214  A    between atoms: _501  and  _503
REMARK  215  A    between atoms: _503  and  _504
REMARK  216  A    between atoms: _503  and  _506
REMARK  217  A    between atoms: _506  and  _507
REMARK  218  A    between atoms: _513  and  _515
REMARK  219  A    between atoms: _515  and  _516
REMARK  220  A    between atoms: _515  and  _518
REMARK  221  A    between atoms: _518  and  _519
REMARK  222  A    between atoms: _522  and  _524
REMARK  223  A    between atoms: _524  and  _525
REMARK  224  A    between atoms: _524  and  _527
REMARK  225  A    between atoms: _530  and  _532
REMARK  226  A    between atoms: _532  and  _533
REMARK  227  A    between atoms: _535  and  _537
REMARK  228  A    between atoms: _537  and  _538
REMARK  229  A    between atoms: _537  and  _540
REMARK  230  A    between atoms: _540  and  _541
REMARK  231  A    between atoms: _544  and  _546
REMARK  232  A    between atoms: _546  and  _547
REMARK  233  A    between atoms: _546  and  _549
REMARK  234  A    between atoms: _549  and  _550
REMARK  235  A    between atoms: _550  and  _551
REMARK  236  A    between atoms: _551  and  _552
REMARK  237  A    between atoms: _552  and  _553
REMARK  238  A    between atoms: _557  and  _559
REMARK  239  A    between atoms: _559  and  _560
REMARK  240  A    between atoms: _559  and  _562
REMARK                            x       y       z     vdW  Elec       q    Type
REMARK                         _______ _______ _______ _____ _____    ______ ____
ROOT
ATOM      1  O   HOH     1      -4.076 -14.691 -23.099  0.00  0.00    +0.000 OA
ENDROOT
TORSDOF 0
REMARK  Name = ../refined-set-2016/4o04/4o04_pocket.pdb
REMARK  240 active torsions:
REMARK  status: ('A' for Active; 'I' for Inactive)
REMARK    1  A    between atoms: _1  and  _3
REMARK    2  A    between atoms: _3  and  _4
REMARK    3  A    between atoms: _3  and  _6
REMARK    4  A    between atoms: _6  and  _7
REMARK    5  A    between atoms: _13  and  _15
REMARK    6  A    between atoms: _15  and  _16
REMARK    7  A    between atoms: _15  and  _18
REMARK    8  A    between atoms: _18  and  _19
REMARK    9  A    between atoms: _22  and  _24
REMARK   10  A    between atoms: _24  and  _25
REMARK   11  A    between atoms: _24  and  _27
REMARK   12  A    between atoms: _27  and  _28
REMARK   13  A    between atoms: _31  and  _33
REMARK   14  A    between atoms: _33  and  _34
REMARK   15  A    between atoms: _33  and  _36
REMARK   16  A    between atoms: _36  and  _37
REMARK   17  A    between atoms: _37  and  _38
REMARK   18  A    between atoms: _41  and  _43
REMARK   19  A    between atoms: _43  and  _44
REMARK   20  A    between atoms: _43  and  _46
REMARK   21  A    between atoms: _46  and  _47
REMARK   22  A    between atoms: _50  and  _52
REMARK   23  A    between atoms: _52  and  _53
REMARK   24  A    between atoms: _52  and  _55
REMARK   25  A    between atoms: _55  and  _56
REMARK   26  A    between atoms: _59  and  _61
REMARK   27  A    between atoms: _61  and  _62
REMARK   28  A    between atoms: _61  and  _64
REMARK   29  A    between atoms: _64  and  _65
REMARK   30  A    between atoms: _67  and  _69
REMARK   31  A    between atoms: _69  and  _70
REMARK   32  A    between atoms: _69  and  _72
REMARK   33  A    between atoms: _72  and  _73
REMARK   34  A    between atoms: _78  and  _80
REMARK   35  A    between atoms: _80  and  _81
REMARK   36  A    between atoms: _80  and  _83
REMARK   37  A    between atoms: _83  and  _84
REMARK   38  A    between atoms: _86  and  _88
REMARK   39  A    between atoms: _88  and  _89
REMARK   40  A    between atoms: _88  and  _91
REMARK   41  A    between atoms: _91  and  _92
REMARK   42  A    between atoms: _94  and  _96
REMARK   43  A    between atoms: _96  and  _97
REMARK   44  A    between atoms: _96  and  _99
REMARK   45  A    between atoms: _99  and  _100
REMARK   46  A    between atoms: _103  and  _105
REMARK   47  A    between atoms: _105  and  _106
REMARK   48  A    between atoms: _109  and  _111
REMARK   49  A    between atoms: _111  and  _112
REMARK   50  A    between atoms: _111  and  _114
REMARK   51  A    between atoms: _114  and  _115
REMARK   52  A    between atoms: _118  and  _120
REMARK   53  A    between atoms: _120  and  _121
REMARK   54  A    between atoms: _120  and  _123
REMARK   55  A    between atoms: _123  and  _124
REMARK   56  A    between atoms: _124  and  _125
REMARK   57  A    between atoms: _125  and  _126
REMARK   58  A    between atoms: _126  and  _127
REMARK   59  A    between atoms: _131  and  _133
REMARK   60  A    between atoms: _133  and  _134
REMARK   61  A    between atoms: _133  and  _136
REMARK   62  A    between atoms: _136  and  _137
REMARK   63  A    between atoms: _140  and  _142
REMARK   64  A    between atoms: _142  and  _143
REMARK   65  A    between atoms: _142  and  _145
REMARK   66  A    between atoms: _148  and  _150
REMARK   67  A    between atoms: _150  and  _151
REMARK   68  A    between atoms: _150  and  _153
REMARK   69  A    between atoms: _153  and  _154
REMARK   70  A    between atoms: _157  and  _159
REMARK   71  A    between atoms: _159  and  _160
REMARK   72  A    between atoms: _159  and  _162
REMARK   73  A    between atoms: _162  and  _163
REMARK   74  A    between atoms: _166  and  _168
REMARK   75  A    between atoms: _168  and  _169
REMARK   76  A    between atoms: _171  and  _173
REMARK   77  A    between atoms: _173  and  _174
REMARK   78  A    between atoms: _173  and  _176
REMARK   79  A    between atoms: _176  and  _177
REMARK   80  A    between atoms: _180  and  _182
REMARK   81  A    between atoms: _182  and  _183
REMARK   82  A    between atoms: _185  and  _187
REMARK   83  A    between atoms: _187  and  _188
REMARK   84  A    between atoms: _187  and  _190
REMARK   85  A    between atoms: _190  and  _191
REMARK   86  A    between atoms: _191  and  _192
REMARK   87  A    between atoms: _194  and  _196
REMARK   88  A    between atoms: _196  and  _197
REMARK   89  A    between atoms: _196  and  _199
REMARK   90  A    between atoms: _199  and  _200
REMARK   91  A    between atoms: _203  and  _205
REMARK   92  A    between atoms: _205  and  _206
REMARK   93  A    between atoms: _205  and  _208
REMARK   94  A    between atoms: _208  and  _209
REMARK   95  A    between atoms: _209  and  _210
REMARK   96  A    between atoms: _210  and  _211
REMARK   97  A    between atoms: _211  and  _212
REMARK   98  A    between atoms: _216  and  _218
REMARK   99  A    between atoms: _218  and  _219
REMARK  100  A    between atoms: _222  and  _224
REMARK  101  A    between atoms: _224  and  _225
REMARK  102  A    between atoms: _224  and  _227
REMARK  103  A    between atoms: _227  and  _228
REMARK  104  A    between atoms: _231  and  _233
REMARK  105  A    between atoms: _233  and  _234
REMARK  106  A    between atoms: _233  and  _236
REMARK  107  A    between atoms: _236  and  _237
REMARK  108  A    between atoms: _240  and  _242
REMARK  109  A    between atoms: _242  and  _243
REMARK  110  A    between atoms: _242  and  _245
REMARK  111  A    between atoms: _245  and  _246
REMARK  112  A    between atoms: _249  and  _251
REMARK  113  A    between atoms: _251  and  _252
REMARK  114  A    between atoms: _251  and  _254
REMARK  115  A    between atoms: _254  and  _255
REMARK  116  A    between atoms: _260  and  _262
REMARK  117  A    between atoms: _262  and  _263
REMARK  118  A    between atoms: _262  and  _265
REMARK  119  A    between atoms: _265  and  _266
REMARK  120  A    between atoms: _271  and  _273
REMARK  121  A    between atoms: _273  and  _274
REMARK  122  A    between atoms: _273  and  _276
REMARK  123  A    between atoms: _276  and  _277
REMARK  124  A    between atoms: _280  and  _282
REMARK  125  A    between atoms: _282  and  _283
REMARK  126  A    between atoms: _285  and  _287
REMARK  127  A    between atoms: _287  and  _288
REMARK  128  A    between atoms: _287  and  _290
REMARK  129  A    between atoms: _290  and  _291
REMARK  130  A    between atoms: _294  and  _296
REMARK  131  A    between atoms: _296  and  _297
REMARK  132  A    between atoms: _296  and  _299
REMARK  133  A    between atoms: _299  and  _300
REMARK  134  A    between atoms: _303  and  _305
REMARK  135  A    between atoms: _305  and  _306
REMARK  136  A    between atoms: _309  and  _311
REMARK  137  A    between atoms: _311  and  _312
REMARK  138  A    between atoms: _311  and  _314
REMARK  139  A    between atoms: _314  and  _315
REMARK  140  A    between atoms: _315  and  _316
REMARK  141  A    between atoms: _316  and  _317
REMARK  142  A    between atoms: _317  and  _318
REMARK  143  A    between atoms: _322  and  _324
REMARK  144  A    between atoms: _324  and  _325
REMARK  145  A    between atoms: _327  and  _329
REMARK  146  A    between atoms: _329  and  _330
REMARK  147  A    between atoms: _329  and  _332
REMARK  148  A    between atoms: _332  and  _333
REMARK  149  A    between atoms: _336  and  _338
REMARK  150  A    between atoms: _338  and  _339
REMARK  151  A    between atoms: _341  and  _343
REMARK  152  A    between atoms: _343  and  _344
REMARK  153  A    between atoms: _343  and  _346
REMARK  154  A    between atoms: _346  and  _347
REMARK  155  A    between atoms: _353  and  _355
REMARK  156  A    between atoms: _355  and  _356
REMARK  157  A    between atoms: _358  and  _360
REMARK  158  A    between atoms: _360  and  _361
REMARK  159  A    between atoms: _360  and  _363
REMARK  160  A    between atoms: _366  and  _368
REMARK  161  A    between atoms: _368  and  _369
REMARK  162  A    between atoms: _371  and  _373
REMARK  163  A    between atoms: _373  and  _374
REMARK  164  A    between atoms: _373  and  _376
REMARK  165  A    between atoms: _376  and  _377
REMARK  166  A    between atoms: _383  and  _385
REMARK  167  A    between atoms: _385  and  _386
REMARK  168  A    between atoms: _385  and  _388
REMARK  169  A    between atoms: _388  and  _389
REMARK  170  A    between atoms: _394  and  _395
REMARK  171  A    between atoms: _397  and  _399
REMARK  172  A    between atoms: _399  and  _400
REMARK  173  A    between atoms: _399  and  _402
REMARK  174  A    between atoms: _402  and  _403
REMARK  175  A    between atoms: _408  and  _409
REMARK  176  A    between atoms: _411  and  _413
REMARK  177  A    between atoms: _413  and  _414
REMARK  178  A    between atoms: _413  and  _416
REMARK  179  A    between atoms: _419  and  _421
REMARK  180  A    between atoms: _421  and  _422
REMARK  181  A    between atoms: _421  and  _424
REMARK  182  A    between atoms: _424  and  _425
REMARK  183  A    between atoms: _428  and  _430
REMARK  184  A    between atoms: _430  and  _431
REMARK  185  A    between atoms: _430  and  _433
REMARK  186  A    between atoms: _436  and  _438
REMARK  187  A    between atoms: _438  and  _439
REMARK  188  A    between atoms: _438  and  _441
REMARK  189  A    between atoms: _441  and  _442
REMARK  190  A    between atoms: _445  and  _447
REMARK  191  A    between atoms: _447  and  _448
REMARK  192  A    between atoms: _447  and  _450
REMARK  193  A    between atoms: _450  and  _451
REMARK  194  A    between atoms: _454  and  _456
REMARK  195  A    between atoms: _456  and  _457
REMARK  196  A    between atoms: _456  and  _459
REMARK  197  A    between atoms: _459  and  _460
REMARK  198  A    between atoms: _460  and  _461
REMARK  199  A    between atoms: _461  and  _462
REMARK  200  A    between atoms: _462  and  _463
REMARK  201  A    between atoms: _467  and  _469
REMARK  202  A    between atoms: _469  and  _470
REMARK  203  A    between atoms: _469  and  _472
REMARK  204  A    between atoms: _472  and  _473
REMARK  205  A    between atoms: _483  and  _485
REMARK  206  A    between atoms: _485  and  _486
REMARK  207  A    between atoms: _485  and  _488
REMARK  208  A    between atoms: _488  and  _489
REMARK  209  A    between atoms: _489  and  _490
REMARK  210  A    between atoms: _493  and  _495
REMARK  211  A    between atoms: _495  and  _496
REMARK  212  A    between atoms: _495  and  _498
REMARK  213  A    between atoms: _498  and  _499
REMARK  214  A    between atoms: _501  and  _503
REMARK  215  A    between atoms: _503  and  _504
REMARK  216  A    between atoms: _503  and  _506
REMARK  217  A    between atoms: _506  and  _507
REMARK  218  A    between atoms: _513  and  _515
REMARK  219  A    between atoms: _515  and  _516
REMARK  220  A    between atoms: _515  and  _518
REMARK  221  A    between atoms: _518  and  _519
REMARK  222  A    between atoms: _522  and  _524
REMARK  223  A    between atoms: _524  and  _525
REMARK  224  A    between atoms: _524  and  _527
REMARK  225  A    between atoms: _530  and  _532
REMARK  226  A    between atoms: _532  and  _533
REMARK  227  A    between atoms: _535  and  _537
REMARK  228  A    between atoms: _537  and  _538
REMARK  229  A    between atoms: _537  and  _540
REMARK  230  A    between atoms: _540  and  _541
REMARK  231  A    between atoms: _544  and  _546
REMARK  232  A    between atoms: _546  and  _547
REMARK  233  A    between atoms: _546  and  _549
REMARK  234  A    between atoms: _549  and  _550
REMARK  235  A    between atoms: _550  and  _551
REMARK  236  A    between atoms: _551  and  _552
REMARK  237  A    between atoms: _552  and  _553
REMARK  238  A    between atoms: _557  and  _559
REMARK  239  A    between atoms: _559  and  _560
REMARK  240  A    between atoms: _559  and  _562
REMARK                            x       y       z     vdW  Elec       q    Type
REMARK                         _______ _______ _______ _____ _____    ______ ____
ROOT
ATOM      1  O   HOH     1       4.501  -6.837 -18.227  0.00  0.00    +0.000 OA
ENDROOT
TORSDOF 0
REMARK  Name = ../refined-set-2016/4o04/4o04_pocket.pdb
REMARK  240 active torsions:
REMARK  status: ('A' for Active; 'I' for Inactive)
REMARK    1  A    between atoms: _1  and  _3
REMARK    2  A    between atoms: _3  and  _4
REMARK    3  A    between atoms: _3  and  _6
REMARK    4  A    between atoms: _6  and  _7
REMARK    5  A    between atoms: _13  and  _15
REMARK    6  A    between atoms: _15  and  _16
REMARK    7  A    between atoms: _15  and  _18
REMARK    8  A    between atoms: _18  and  _19
REMARK    9  A    between atoms: _22  and  _24
REMARK   10  A    between atoms: _24  and  _25
REMARK   11  A    between atoms: _24  and  _27
REMARK   12  A    between atoms: _27  and  _28
REMARK   13  A    between atoms: _31  and  _33
REMARK   14  A    between atoms: _33  and  _34
REMARK   15  A    between atoms: _33  and  _36
REMARK   16  A    between atoms: _36  and  _37
REMARK   17  A    between atoms: _37  and  _38
REMARK   18  A    between atoms: _41  and  _43
REMARK   19  A    between atoms: _43  and  _44
REMARK   20  A    between atoms: _43  and  _46
REMARK   21  A    between atoms: _46  and  _47
REMARK   22  A    between atoms: _50  and  _52
REMARK   23  A    between atoms: _52  and  _53
REMARK   24  A    between atoms: _52  and  _55
REMARK   25  A    between atoms: _55  and  _56
REMARK   26  A    between atoms: _59  and  _61
REMARK   27  A    between atoms: _61  and  _62
REMARK   28  A    between atoms: _61  and  _64
REMARK   29  A    between atoms: _64  and  _65
REMARK   30  A    between atoms: _67  and  _69
REMARK   31  A    between atoms: _69  and  _70
REMARK   32  A    between atoms: _69  and  _72
REMARK   33  A    between atoms: _72  and  _73
REMARK   34  A    between atoms: _78  and  _80
REMARK   35  A    between atoms: _80  and  _81
REMARK   36  A    between atoms: _80  and  _83
REMARK   37  A    between atoms: _83  and  _84
REMARK   38  A    between atoms: _86  and  _88
REMARK   39  A    between atoms: _88  and  _89
REMARK   40  A    between atoms: _88  and  _91
REMARK   41  A    between atoms: _91  and  _92
REMARK   42  A    between atoms: _94  and  _96
REMARK   43  A    between atoms: _96  and  _97
REMARK   44  A    between atoms: _96  and  _99
REMARK   45  A    between atoms: _99  and  _100
REMARK   46  A    between atoms: _103  and  _105
REMARK   47  A    between atoms: _105  and  _106
REMARK   48  A    between atoms: _109  and  _111
REMARK   49  A    between atoms: _111  and  _112
REMARK   50  A    between atoms: _111  and  _114
REMARK   51  A    between atoms: _114  and  _115
REMARK   52  A    between atoms: _118  and  _120
REMARK   53  A    between atoms: _120  and  _121
REMARK   54  A    between atoms: _120  and  _123
REMARK   55  A    between atoms: _123  and  _124
REMARK   56  A    between atoms: _124  and  _125
REMARK   57  A    between atoms: _125  and  _126
REMARK   58  A    between atoms: _126  and  _127
REMARK   59  A    between atoms: _131  and  _133
REMARK   60  A    between atoms: _133  and  _134
REMARK   61  A    between atoms: _133  and  _136
REMARK   62  A    between atoms: _136  and  _137
REMARK   63  A    between atoms: _140  and  _142
REMARK   64  A    between atoms: _142  and  _143
REMARK   65  A    between atoms: _142  and  _145
REMARK   66  A    between atoms: _148  and  _150
REMARK   67  A    between atoms: _150  and  _151
REMARK   68  A    between atoms: _150  and  _153
REMARK   69  A    between atoms: _153  and  _154
REMARK   70  A    between atoms: _157  and  _159
REMARK   71  A    between atoms: _159  and  _160
REMARK   72  A    between atoms: _159  and  _162
REMARK   73  A    between atoms: _162  and  _163
REMARK   74  A    between atoms: _166  and  _168
REMARK   75  A    between atoms: _168  and  _169
REMARK   76  A    between atoms: _171  and  _173
REMARK   77  A    between atoms: _173  and  _174
REMARK   78  A    between atoms: _173  and  _176
REMARK   79  A    between atoms: _176  and  _177
REMARK   80  A    between atoms: _180  and  _182
REMARK   81  A    between atoms: _182  and  _183
REMARK   82  A    between atoms: _185  and  _187
REMARK   83  A    between atoms: _187  and  _188
REMARK   84  A    between atoms: _187  and  _190
REMARK   85  A    between atoms: _190  and  _191
REMARK   86  A    between atoms: _191  and  _192
REMARK   87  A    between atoms: _194  and  _196
REMARK   88  A    between atoms: _196  and  _197
REMARK   89  A    between atoms: _196  and  _199
REMARK   90  A    between atoms: _199  and  _200
REMARK   91  A    between atoms: _203  and  _205
REMARK   92  A    between atoms: _205  and  _206
REMARK   93  A    between atoms: _205  and  _208
REMARK   94  A    between atoms: _208  and  _209
REMARK   95  A    between atoms: _209  and  _210
REMARK   96  A    between atoms: _210  and  _211
REMARK   97  A    between atoms: _211  and  _212
REMARK   98  A    between atoms: _216  and  _218
REMARK   99  A    between atoms: _218  and  _219
REMARK  100  A    between atoms: _222  and  _224
REMARK  101  A    between atoms: _224  and  _225
REMARK  102  A    between atoms: _224  and  _227
REMARK  103  A    between atoms: _227  and  _228
REMARK  104  A    between atoms: _231  and  _233
REMARK  105  A    between atoms: _233  and  _234
REMARK  106  A    between atoms: _233  and  _236
REMARK  107  A    between atoms: _236  and  _237
REMARK  108  A    between atoms: _240  and  _242
REMARK  109  A    between atoms: _242  and  _243
REMARK  110  A    between atoms: _242  and  _245
REMARK  111  A    between atoms: _245  and  _246
REMARK  112  A    between atoms: _249  and  _251
REMARK  113  A    between atoms: _251  and  _252
REMARK  114  A    between atoms: _251  and  _254
REMARK  115  A    between atoms: _254  and  _255
REMARK  116  A    between atoms: _260  and  _262
REMARK  117  A    between atoms: _262  and  _263
REMARK  118  A    between atoms: _262  and  _265
REMARK  119  A    between atoms: _265  and  _266
REMARK  120  A    between atoms: _271  and  _273
REMARK  121  A    between atoms: _273  and  _274
REMARK  122  A    between atoms: _273  and  _276
REMARK  123  A    between atoms: _276  and  _277
REMARK  124  A    between atoms: _280  and  _282
REMARK  125  A    between atoms: _282  and  _283
REMARK  126  A    between atoms: _285  and  _287
REMARK  127  A    between atoms: _287  and  _288
REMARK  128  A    between atoms: _287  and  _290
REMARK  129  A    between atoms: _290  and  _291
REMARK  130  A    between atoms: _294  and  _296
REMARK  131  A    between atoms: _296  and  _297
REMARK  132  A    between atoms: _296  and  _299
REMARK  133  A    between atoms: _299  and  _300
REMARK  134  A    between atoms: _303  and  _305
REMARK  135  A    between atoms: _305  and  _306
REMARK  136  A    between atoms: _309  and  _311
REMARK  137  A    between atoms: _311  and  _312
REMARK  138  A    between atoms: _311  and  _314
REMARK  139  A    between atoms: _314  and  _315
REMARK  140  A    between atoms: _315  and  _316
REMARK  141  A    between atoms: _316  and  _317
REMARK  142  A    between atoms: _317  and  _318
REMARK  143  A    between atoms: _322  and  _324
REMARK  144  A    between atoms: _324  and  _325
REMARK  145  A    between atoms: _327  and  _329
REMARK  146  A    between atoms: _329  and  _330
REMARK  147  A    between atoms: _329  and  _332
REMARK  148  A    between atoms: _332  and  _333
REMARK  149  A    between atoms: _336  and  _338
REMARK  150  A    between atoms: _338  and  _339
REMARK  151  A    between atoms: _341  and  _343
REMARK  152  A    between atoms: _343  and  _344
REMARK  153  A    between atoms: _343  and  _346
REMARK  154  A    between atoms: _346  and  _347
REMARK  155  A    between atoms: _353  and  _355
REMARK  156  A    between atoms: _355  and  _356
REMARK  157  A    between atoms: _358  and  _360
REMARK  158  A    between atoms: _360  and  _361
REMARK  159  A    between atoms: _360  and  _363
REMARK  160  A    between atoms: _366  and  _368
REMARK  161  A    between atoms: _368  and  _369
REMARK  162  A    between atoms: _371  and  _373
REMARK  163  A    between atoms: _373  and  _374
REMARK  164  A    between atoms: _373  and  _376
REMARK  165  A    between atoms: _376  and  _377
REMARK  166  A    between atoms: _383  and  _385
REMARK  167  A    between atoms: _385  and  _386
REMARK  168  A    between atoms: _385  and  _388
REMARK  169  A    between atoms: _388  and  _389
REMARK  170  A    between atoms: _394  and  _395
REMARK  171  A    between atoms: _397  and  _399
REMARK  172  A    between atoms: _399  and  _400
REMARK  173  A    between atoms: _399  and  _402
REMARK  174  A    between atoms: _402  and  _403
REMARK  175  A    between atoms: _408  and  _409
REMARK  176  A    between atoms: _411  and  _413
REMARK  177  A    between atoms: _413  and  _414
REMARK  178  A    between atoms: _413  and  _416
REMARK  179  A    between atoms: _419  and  _421
REMARK  180  A    between atoms: _421  and  _422
REMARK  181  A    between atoms: _421  and  _424
REMARK  182  A    between atoms: _424  and  _425
REMARK  183  A    between atoms: _428  and  _430
REMARK  184  A    between atoms: _430  and  _431
REMARK  185  A    between atoms: _430  and  _433
REMARK  186  A    between atoms: _436  and  _438
REMARK  187  A    between atoms: _438  and  _439
REMARK  188  A    between atoms: _438  and  _441
REMARK  189  A    between atoms: _441  and  _442
REMARK  190  A    between atoms: _445  and  _447
REMARK  191  A    between atoms: _447  and  _448
REMARK  192  A    between atoms: _447  and  _450
REMARK  193  A    between atoms: _450  and  _451
REMARK  194  A    between atoms: _454  and  _456
REMARK  195  A    between atoms: _456  and  _457
REMARK  196  A    between atoms: _456  and  _459
REMARK  197  A    between atoms: _459  and  _460
REMARK  198  A    between atoms: _460  and  _461
REMARK  199  A    between atoms: _461  and  _462
REMARK  200  A    between atoms: _462  and  _463
REMARK  201  A    between atoms: _467  and  _469
REMARK  202  A    between atoms: _469  and  _470
REMARK  203  A    between atoms: _469  and  _472
REMARK  204  A    between atoms: _472  and  _473
REMARK  205  A    between atoms: _483  and  _485
REMARK  206  A    between atoms: _485  and  _486
REMARK  207  A    between atoms: _485  and  _488
REMARK  208  A    between atoms: _488  and  _489
REMARK  209  A    between atoms: _489  and  _490
REMARK  210  A    between atoms: _493  and  _495
REMARK  211  A    between atoms: _495  and  _496
REMARK  212  A    between atoms: _495  and  _498
REMARK  213  A    between atoms: _498  and  _499
REMARK  214  A    between atoms: _501  and  _503
REMARK  215  A    between atoms: _503  and  _504
REMARK  216  A    between atoms: _503  and  _506
REMARK  217  A    between atoms: _506  and  _507
REMARK  218  A    between atoms: _513  and  _515
REMARK  219  A    between atoms: _515  and  _516
REMARK  220  A    between atoms: _515  and  _518
REMARK  221  A    between atoms: _518  and  _519
REMARK  222  A    between atoms: _522  and  _524
REMARK  223  A    between atoms: _524  and  _525
REMARK  224  A    between atoms: _524  and  _527
REMARK  225  A    between atoms: _530  and  _532
REMARK  226  A    between atoms: _532  and  _533
REMARK  227  A    between atoms: _535  and  _537
REMARK  228  A    between atoms: _537  and  _538
REMARK  229  A    between atoms: _537  and  _540
REMARK  230  A    between atoms: _540  and  _541
REMARK  231  A    between atoms: _544  and  _546
REMARK  232  A    between atoms: _546  and  _547
REMARK  233  A    between atoms: _546  and  _549
REMARK  234  A    between atoms: _549  and  _550
REMARK  235  A    between atoms: _550  and  _551
REMARK  236  A    between atoms: _551  and  _552
REMARK  237  A    between atoms: _552  and  _553
REMARK  238  A    between atoms: _557  and  _559
REMARK  239  A    between atoms: _559  and  _560
REMARK  240  A    between atoms: _559  and  _562
REMARK                            x       y       z     vdW  Elec       q    Type
REMARK                         _______ _______ _______ _____ _____    ______ ____
ROOT
ATOM      1  O   HOH     1      -4.029 -11.128 -27.765  0.00  0.00    +0.000 OA
ENDROOT
TORSDOF 0
REMARK  Name = ../refined-set-2016/4o04/4o04_pocket.pdb
REMARK  240 active torsions:
REMARK  status: ('A' for Active; 'I' for Inactive)
REMARK    1  A    between atoms: _1  and  _3
REMARK    2  A    between atoms: _3  and  _4
REMARK    3  A    between atoms: _3  and  _6
REMARK    4  A    between atoms: _6  and  _7
REMARK    5  A    between atoms: _13  and  _15
REMARK    6  A    between atoms: _15  and  _16
REMARK    7  A    between atoms: _15  and  _18
REMARK    8  A    between atoms: _18  and  _19
REMARK    9  A    between atoms: _22  and  _24
REMARK   10  A    between atoms: _24  and  _25
REMARK   11  A    between atoms: _24  and  _27
REMARK   12  A    between atoms: _27  and  _28
REMARK   13  A    between atoms: _31  and  _33
REMARK   14  A    between atoms: _33  and  _34
REMARK   15  A    between atoms: _33  and  _36
REMARK   16  A    between atoms: _36  and  _37
REMARK   17  A    between atoms: _37  and  _38
REMARK   18  A    between atoms: _41  and  _43
REMARK   19  A    between atoms: _43  and  _44
REMARK   20  A    between atoms: _43  and  _46
REMARK   21  A    between atoms: _46  and  _47
REMARK   22  A    between atoms: _50  and  _52
REMARK   23  A    between atoms: _52  and  _53
REMARK   24  A    between atoms: _52  and  _55
REMARK   25  A    between atoms: _55  and  _56
REMARK   26  A    between atoms: _59  and  _61
REMARK   27  A    between atoms: _61  and  _62
REMARK   28  A    between atoms: _61  and  _64
REMARK   29  A    between atoms: _64  and  _65
REMARK   30  A    between atoms: _67  and  _69
REMARK   31  A    between atoms: _69  and  _70
REMARK   32  A    between atoms: _69  and  _72
REMARK   33  A    between atoms: _72  and  _73
REMARK   34  A    between atoms: _78  and  _80
REMARK   35  A    between atoms: _80  and  _81
REMARK   36  A    between atoms: _80  and  _83
REMARK   37  A    between atoms: _83  and  _84
REMARK   38  A    between atoms: _86  and  _88
REMARK   39  A    between atoms: _88  and  _89
REMARK   40  A    between atoms: _88  and  _91
REMARK   41  A    between atoms: _91  and  _92
REMARK   42  A    between atoms: _94  and  _96
REMARK   43  A    between atoms: _96  and  _97
REMARK   44  A    between atoms: _96  and  _99
REMARK   45  A    between atoms: _99  and  _100
REMARK   46  A    between atoms: _103  and  _105
REMARK   47  A    between atoms: _105  and  _106
REMARK   48  A    between atoms: _109  and  _111
REMARK   49  A    between atoms: _111  and  _112
REMARK   50  A    between atoms: _111  and  _114
REMARK   51  A    between atoms: _114  and  _115
REMARK   52  A    between atoms: _118  and  _120
REMARK   53  A    between atoms: _120  and  _121
REMARK   54  A    between atoms: _120  and  _123
REMARK   55  A    between atoms: _123  and  _124
REMARK   56  A    between atoms: _124  and  _125
REMARK   57  A    between atoms: _125  and  _126
REMARK   58  A    between atoms: _126  and  _127
REMARK   59  A    between atoms: _131  and  _133
REMARK   60  A    between atoms: _133  and  _134
REMARK   61  A    between atoms: _133  and  _136
REMARK   62  A    between atoms: _136  and  _137
REMARK   63  A    between atoms: _140  and  _142
REMARK   64  A    between atoms: _142  and  _143
REMARK   65  A    between atoms: _142  and  _145
REMARK   66  A    between atoms: _148  and  _150
REMARK   67  A    between atoms: _150  and  _151
REMARK   68  A    between atoms: _150  and  _153
REMARK   69  A    between atoms: _153  and  _154
REMARK   70  A    between atoms: _157  and  _159
REMARK   71  A    between atoms: _159  and  _160
REMARK   72  A    between atoms: _159  and  _162
REMARK   73  A    between atoms: _162  and  _163
REMARK   74  A    between atoms: _166  and  _168
REMARK   75  A    between atoms: _168  and  _169
REMARK   76  A    between atoms: _171  and  _173
REMARK   77  A    between atoms: _173  and  _174
REMARK   78  A    between atoms: _173  and  _176
REMARK   79  A    between atoms: _176  and  _177
REMARK   80  A    between atoms: _180  and  _182
REMARK   81  A    between atoms: _182  and  _183
REMARK   82  A    between atoms: _185  and  _187
REMARK   83  A    between atoms: _187  and  _188
REMARK   84  A    between atoms: _187  and  _190
REMARK   85  A    between atoms: _190  and  _191
REMARK   86  A    between atoms: _191  and  _192
REMARK   87  A    between atoms: _194  and  _196
REMARK   88  A    between atoms: _196  and  _197
REMARK   89  A    between atoms: _196  and  _199
REMARK   90  A    between atoms: _199  and  _200
REMARK   91  A    between atoms: _203  and  _205
REMARK   92  A    between atoms: _205  and  _206
REMARK   93  A    between atoms: _205  and  _208
REMARK   94  A    between atoms: _208  and  _209
REMARK   95  A    between atoms: _209  and  _210
REMARK   96  A    between atoms: _210  and  _211
REMARK   97  A    between atoms: _211  and  _212
REMARK   98  A    between atoms: _216  and  _218
REMARK   99  A    between atoms: _218  and  _219
REMARK  100  A    between atoms: _222  and  _224
REMARK  101  A    between atoms: _224  and  _225
REMARK  102  A    between atoms: _224  and  _227
REMARK  103  A    between atoms: _227  and  _228
REMARK  104  A    between atoms: _231  and  _233
REMARK  105  A    between atoms: _233  and  _234
REMARK  106  A    between atoms: _233  and  _236
REMARK  107  A    between atoms: _236  and  _237
REMARK  108  A    between atoms: _240  and  _242
REMARK  109  A    between atoms: _242  and  _243
REMARK  110  A    between atoms: _242  and  _245
REMARK  111  A    between atoms: _245  and  _246
REMARK  112  A    between atoms: _249  and  _251
REMARK  113  A    between atoms: _251  and  _252
REMARK  114  A    between atoms: _251  and  _254
REMARK  115  A    between atoms: _254  and  _255
REMARK  116  A    between atoms: _260  and  _262
REMARK  117  A    between atoms: _262  and  _263
REMARK  118  A    between atoms: _262  and  _265
REMARK  119  A    between atoms: _265  and  _266
REMARK  120  A    between atoms: _271  and  _273
REMARK  121  A    between atoms: _273  and  _274
REMARK  122  A    between atoms: _273  and  _276
REMARK  123  A    between atoms: _276  and  _277
REMARK  124  A    between atoms: _280  and  _282
REMARK  125  A    between atoms: _282  and  _283
REMARK  126  A    between atoms: _285  and  _287
REMARK  127  A    between atoms: _287  and  _288
REMARK  128  A    between atoms: _287  and  _290
REMARK  129  A    between atoms: _290  and  _291
REMARK  130  A    between atoms: _294  and  _296
REMARK  131  A    between atoms: _296  and  _297
REMARK  132  A    between atoms: _296  and  _299
REMARK  133  A    between atoms: _299  and  _300
REMARK  134  A    between atoms: _303  and  _305
REMARK  135  A    between atoms: _305  and  _306
REMARK  136  A    between atoms: _309  and  _311
REMARK  137  A    between atoms: _311  and  _312
REMARK  138  A    between atoms: _311  and  _314
REMARK  139  A    between atoms: _314  and  _315
REMARK  140  A    between atoms: _315  and  _316
REMARK  141  A    between atoms: _316  and  _317
REMARK  142  A    between atoms: _317  and  _318
REMARK  143  A    between atoms: _322  and  _324
REMARK  144  A    between atoms: _324  and  _325
REMARK  145  A    between atoms: _327  and  _329
REMARK  146  A    between atoms: _329  and  _330
REMARK  147  A    between atoms: _329  and  _332
REMARK  148  A    between atoms: _332  and  _333
REMARK  149  A    between atoms: _336  and  _338
REMARK  150  A    between atoms: _338  and  _339
REMARK  151  A    between atoms: _341  and  _343
REMARK  152  A    between atoms: _343  and  _344
REMARK  153  A    between atoms: _343  and  _346
REMARK  154  A    between atoms: _346  and  _347
REMARK  155  A    between atoms: _353  and  _355
REMARK  156  A    between atoms: _355  and  _356
REMARK  157  A    between atoms: _358  and  _360
REMARK  158  A    between atoms: _360  and  _361
REMARK  159  A    between atoms: _360  and  _363
REMARK  160  A    between atoms: _366  and  _368
REMARK  161  A    between atoms: _368  and  _369
REMARK  162  A    between atoms: _371  and  _373
REMARK  163  A    between atoms: _373  and  _374
REMARK  164  A    between atoms: _373  and  _376
REMARK  165  A    between atoms: _376  and  _377
REMARK  166  A    between atoms: _383  and  _385
REMARK  167  A    between atoms: _385  and  _386
REMARK  168  A    between atoms: _385  and  _388
REMARK  169  A    between atoms: _388  and  _389
REMARK  170  A    between atoms: _394  and  _395
REMARK  171  A    between atoms: _397  and  _399
REMARK  172  A    between atoms: _399  and  _400
REMARK  173  A    between atoms: _399  and  _402
REMARK  174  A    between atoms: _402  and  _403
REMARK  175  A    between atoms: _408  and  _409
REMARK  176  A    between atoms: _411  and  _413
REMARK  177  A    between atoms: _413  and  _414
REMARK  178  A    between atoms: _413  and  _416
REMARK  179  A    between atoms: _419  and  _421
REMARK  180  A    between atoms: _421  and  _422
REMARK  181  A    between atoms: _421  and  _424
REMARK  182  A    between atoms: _424  and  _425
REMARK  183  A    between atoms: _428  and  _430
REMARK  184  A    between atoms: _430  and  _431
REMARK  185  A    between atoms: _430  and  _433
REMARK  186  A    between atoms: _436  and  _438
REMARK  187  A    between atoms: _438  and  _439
REMARK  188  A    between atoms: _438  and  _441
REMARK  189  A    between atoms: _441  and  _442
REMARK  190  A    between atoms: _445  and  _447
REMARK  191  A    between atoms: _447  and  _448
REMARK  192  A    between atoms: _447  and  _450
REMARK  193  A    between atoms: _450  and  _451
REMARK  194  A    between atoms: _454  and  _456
REMARK  195  A    between atoms: _456  and  _457
REMARK  196  A    between atoms: _456  and  _459
REMARK  197  A    between atoms: _459  and  _460
REMARK  198  A    between atoms: _460  and  _461
REMARK  199  A    between atoms: _461  and  _462
REMARK  200  A    between atoms: _462  and  _463
REMARK  201  A    between atoms: _467  and  _469
REMARK  202  A    between atoms: _469  and  _470
REMARK  203  A    between atoms: _469  and  _472
REMARK  204  A    between atoms: _472  and  _473
REMARK  205  A    between atoms: _483  and  _485
REMARK  206  A    between atoms: _485  and  _486
REMARK  207  A    between atoms: _485  and  _488
REMARK  208  A    between atoms: _488  and  _489
REMARK  209  A    between atoms: _489  and  _490
REMARK  210  A    between atoms: _493  and  _495
REMARK  211  A    between atoms: _495  and  _496
REMARK  212  A    between atoms: _495  and  _498
REMARK  213  A    between atoms: _498  and  _499
REMARK  214  A    between atoms: _501  and  _503
REMARK  215  A    between atoms: _503  and  _504
REMARK  216  A    between atoms: _503  and  _506
REMARK  217  A    between atoms: _506  and  _507
REMARK  218  A    between atoms: _513  and  _515
REMARK  219  A    between atoms: _515  and  _516
REMARK  220  A    between atoms: _515  and  _518
REMARK  221  A    between atoms: _518  and  _519
REMARK  222  A    between atoms: _522  and  _524
REMARK  223  A    between atoms: _524  and  _525
REMARK  224  A    between atoms: _524  and  _527
REMARK  225  A    between atoms: _530  and  _532
REMARK  226  A    between atoms: _532  and  _533
REMARK  227  A    between atoms: _535  and  _537
REMARK  228  A    between atoms: _537  and  _538
REMARK  229  A    between atoms: _537  and  _540
REMARK  230  A    between atoms: _540  and  _541
REMARK  231  A    between atoms: _544  and  _546
REMARK  232  A    between atoms: _546  and  _547
REMARK  233  A    between atoms: _546  and  _549
REMARK  234  A    between atoms: _549  and  _550
REMARK  235  A    between atoms: _550  and  _551
REMARK  236  A    between atoms: _551  and  _552
REMARK  237  A    between atoms: _552  and  _553
REMARK  238  A    between atoms: _557  and  _559
REMARK  239  A    between atoms: _559  and  _560
REMARK  240  A    between atoms: _559  and  _562
REMARK                            x       y       z     vdW  Elec       q    Type
REMARK                         _______ _______ _______ _____ _____    ______ ____
ROOT
ATOM      1  O   HOH     1      -0.045  -7.129 -24.377  0.00  0.00    +0.000 OA
ENDROOT
TORSDOF 0
REMARK  Name = ../refined-set-2016/4o04/4o04_pocket.pdb
REMARK  240 active torsions:
REMARK  status: ('A' for Active; 'I' for Inactive)
REMARK    1  A    between atoms: _1  and  _3
REMARK    2  A    between atoms: _3  and  _4
REMARK    3  A    between atoms: _3  and  _6
REMARK    4  A    between atoms: _6  and  _7
REMARK    5  A    between atoms: _13  and  _15
REMARK    6  A    between atoms: _15  and  _16
REMARK    7  A    between atoms: _15  and  _18
REMARK    8  A    between atoms: _18  and  _19
REMARK    9  A    between atoms: _22  and  _24
REMARK   10  A    between atoms: _24  and  _25
REMARK   11  A    between atoms: _24  and  _27
REMARK   12  A    between atoms: _27  and  _28
REMARK   13  A    between atoms: _31  and  _33
REMARK   14  A    between atoms: _33  and  _34
REMARK   15  A    between atoms: _33  and  _36
REMARK   16  A    between atoms: _36  and  _37
REMARK   17  A    between atoms: _37  and  _38
REMARK   18  A    between atoms: _41  and  _43
REMARK   19  A    between atoms: _43  and  _44
REMARK   20  A    between atoms: _43  and  _46
REMARK   21  A    between atoms: _46  and  _47
REMARK   22  A    between atoms: _50  and  _52
REMARK   23  A    between atoms: _52  and  _53
REMARK   24  A    between atoms: _52  and  _55
REMARK   25  A    between atoms: _55  and  _56
REMARK   26  A    between atoms: _59  and  _61
REMARK   27  A    between atoms: _61  and  _62
REMARK   28  A    between atoms: _61  and  _64
REMARK   29  A    between atoms: _64  and  _65
REMARK   30  A    between atoms: _67  and  _69
REMARK   31  A    between atoms: _69  and  _70
REMARK   32  A    between atoms: _69  and  _72
REMARK   33  A    between atoms: _72  and  _73
REMARK   34  A    between atoms: _78  and  _80
REMARK   35  A    between atoms: _80  and  _81
REMARK   36  A    between atoms: _80  and  _83
REMARK   37  A    between atoms: _83  and  _84
REMARK   38  A    between atoms: _86  and  _88
REMARK   39  A    between atoms: _88  and  _89
REMARK   40  A    between atoms: _88  and  _91
REMARK   41  A    between atoms: _91  and  _92
REMARK   42  A    between atoms: _94  and  _96
REMARK   43  A    between atoms: _96  and  _97
REMARK   44  A    between atoms: _96  and  _99
REMARK   45  A    between atoms: _99  and  _100
REMARK   46  A    between atoms: _103  and  _105
REMARK   47  A    between atoms: _105  and  _106
REMARK   48  A    between atoms: _109  and  _111
REMARK   49  A    between atoms: _111  and  _112
REMARK   50  A    between atoms: _111  and  _114
REMARK   51  A    between atoms: _114  and  _115
REMARK   52  A    between atoms: _118  and  _120
REMARK   53  A    between atoms: _120  and  _121
REMARK   54  A    between atoms: _120  and  _123
REMARK   55  A    between atoms: _123  and  _124
REMARK   56  A    between atoms: _124  and  _125
REMARK   57  A    between atoms: _125  and  _126
REMARK   58  A    between atoms: _126  and  _127
REMARK   59  A    between atoms: _131  and  _133
REMARK   60  A    between atoms: _133  and  _134
REMARK   61  A    between atoms: _133  and  _136
REMARK   62  A    between atoms: _136  and  _137
REMARK   63  A    between atoms: _140  and  _142
REMARK   64  A    between atoms: _142  and  _143
REMARK   65  A    between atoms: _142  and  _145
REMARK   66  A    between atoms: _148  and  _150
REMARK   67  A    between atoms: _150  and  _151
REMARK   68  A    between atoms: _150  and  _153
REMARK   69  A    between atoms: _153  and  _154
REMARK   70  A    between atoms: _157  and  _159
REMARK   71  A    between atoms: _159  and  _160
REMARK   72  A    between atoms: _159  and  _162
REMARK   73  A    between atoms: _162  and  _163
REMARK   74  A    between atoms: _166  and  _168
REMARK   75  A    between atoms: _168  and  _169
REMARK   76  A    between atoms: _171  and  _173
REMARK   77  A    between atoms: _173  and  _174
REMARK   78  A    between atoms: _173  and  _176
REMARK   79  A    between atoms: _176  and  _177
REMARK   80  A    between atoms: _180  and  _182
REMARK   81  A    between atoms: _182  and  _183
REMARK   82  A    between atoms: _185  and  _187
REMARK   83  A    between atoms: _187  and  _188
REMARK   84  A    between atoms: _187  and  _190
REMARK   85  A    between atoms: _190  and  _191
REMARK   86  A    between atoms: _191  and  _192
REMARK   87  A    between atoms: _194  and  _196
REMARK   88  A    between atoms: _196  and  _197
REMARK   89  A    between atoms: _196  and  _199
REMARK   90  A    between atoms: _199  and  _200
REMARK   91  A    between atoms: _203  and  _205
REMARK   92  A    between atoms: _205  and  _206
REMARK   93  A    between atoms: _205  and  _208
REMARK   94  A    between atoms: _208  and  _209
REMARK   95  A    between atoms: _209  and  _210
REMARK   96  A    between atoms: _210  and  _211
REMARK   97  A    between atoms: _211  and  _212
REMARK   98  A    between atoms: _216  and  _218
REMARK   99  A    between atoms: _218  and  _219
REMARK  100  A    between atoms: _222  and  _224
REMARK  101  A    between atoms: _224  and  _225
REMARK  102  A    between atoms: _224  and  _227
REMARK  103  A    between atoms: _227  and  _228
REMARK  104  A    between atoms: _231  and  _233
REMARK  105  A    between atoms: _233  and  _234
REMARK  106  A    between atoms: _233  and  _236
REMARK  107  A    between atoms: _236  and  _237
REMARK  108  A    between atoms: _240  and  _242
REMARK  109  A    between atoms: _242  and  _243
REMARK  110  A    between atoms: _242  and  _245
REMARK  111  A    between atoms: _245  and  _246
REMARK  112  A    between atoms: _249  and  _251
REMARK  113  A    between atoms: _251  and  _252
REMARK  114  A    between atoms: _251  and  _254
REMARK  115  A    between atoms: _254  and  _255
REMARK  116  A    between atoms: _260  and  _262
REMARK  117  A    between atoms: _262  and  _263
REMARK  118  A    between atoms: _262  and  _265
REMARK  119  A    between atoms: _265  and  _266
REMARK  120  A    between atoms: _271  and  _273
REMARK  121  A    between atoms: _273  and  _274
REMARK  122  A    between atoms: _273  and  _276
REMARK  123  A    between atoms: _276  and  _277
REMARK  124  A    between atoms: _280  and  _282
REMARK  125  A    between atoms: _282  and  _283
REMARK  126  A    between atoms: _285  and  _287
REMARK  127  A    between atoms: _287  and  _288
REMARK  128  A    between atoms: _287  and  _290
REMARK  129  A    between atoms: _290  and  _291
REMARK  130  A    between atoms: _294  and  _296
REMARK  131  A    between atoms: _296  and  _297
REMARK  132  A    between atoms: _296  and  _299
REMARK  133  A    between atoms: _299  and  _300
REMARK  134  A    between atoms: _303  and  _305
REMARK  135  A    between atoms: _305  and  _306
REMARK  136  A    between atoms: _309  and  _311
REMARK  137  A    between atoms: _311  and  _312
REMARK  138  A    between atoms: _311  and  _314
REMARK  139  A    between atoms: _314  and  _315
REMARK  140  A    between atoms: _315  and  _316
REMARK  141  A    between atoms: _316  and  _317
REMARK  142  A    between atoms: _317  and  _318
REMARK  143  A    between atoms: _322  and  _324
REMARK  144  A    between atoms: _324  and  _325
REMARK  145  A    between atoms: _327  and  _329
REMARK  146  A    between atoms: _329  and  _330
REMARK  147  A    between atoms: _329  and  _332
REMARK  148  A    between atoms: _332  and  _333
REMARK  149  A    between atoms: _336  and  _338
REMARK  150  A    between atoms: _338  and  _339
REMARK  151  A    between atoms: _341  and  _343
REMARK  152  A    between atoms: _343  and  _344
REMARK  153  A    between atoms: _343  and  _346
REMARK  154  A    between atoms: _346  and  _347
REMARK  155  A    between atoms: _353  and  _355
REMARK  156  A    between atoms: _355  and  _356
REMARK  157  A    between atoms: _358  and  _360
REMARK  158  A    between atoms: _360  and  _361
REMARK  159  A    between atoms: _360  and  _363
REMARK  160  A    between atoms: _366  and  _368
REMARK  161  A    between atoms: _368  and  _369
REMARK  162  A    between atoms: _371  and  _373
REMARK  163  A    between atoms: _373  and  _374
REMARK  164  A    between atoms: _373  and  _376
REMARK  165  A    between atoms: _376  and  _377
REMARK  166  A    between atoms: _383  and  _385
REMARK  167  A    between atoms: _385  and  _386
REMARK  168  A    between atoms: _385  and  _388
REMARK  169  A    between atoms: _388  and  _389
REMARK  170  A    between atoms: _394  and  _395
REMARK  171  A    between atoms: _397  and  _399
REMARK  172  A    between atoms: _399  and  _400
REMARK  173  A    between atoms: _399  and  _402
REMARK  174  A    between atoms: _402  and  _403
REMARK  175  A    between atoms: _408  and  _409
REMARK  176  A    between atoms: _411  and  _413
REMARK  177  A    between atoms: _413  and  _414
REMARK  178  A    between atoms: _413  and  _416
REMARK  179  A    between atoms: _419  and  _421
REMARK  180  A    between atoms: _421  and  _422
REMARK  181  A    between atoms: _421  and  _424
REMARK  182  A    between atoms: _424  and  _425
REMARK  183  A    between atoms: _428  and  _430
REMARK  184  A    between atoms: _430  and  _431
REMARK  185  A    between atoms: _430  and  _433
REMARK  186  A    between atoms: _436  and  _438
REMARK  187  A    between atoms: _438  and  _439
REMARK  188  A    between atoms: _438  and  _441
REMARK  189  A    between atoms: _441  and  _442
REMARK  190  A    between atoms: _445  and  _447
REMARK  191  A    between atoms: _447  and  _448
REMARK  192  A    between atoms: _447  and  _450
REMARK  193  A    between atoms: _450  and  _451
REMARK  194  A    between atoms: _454  and  _456
REMARK  195  A    between atoms: _456  and  _457
REMARK  196  A    between atoms: _456  and  _459
REMARK  197  A    between atoms: _459  and  _460
REMARK  198  A    between atoms: _460  and  _461
REMARK  199  A    between atoms: _461  and  _462
REMARK  200  A    between atoms: _462  and  _463
REMARK  201  A    between atoms: _467  and  _469
REMARK  202  A    between atoms: _469  and  _470
REMARK  203  A    between atoms: _469  and  _472
REMARK  204  A    between atoms: _472  and  _473
REMARK  205  A    between atoms: _483  and  _485
REMARK  206  A    between atoms: _485  and  _486
REMARK  207  A    between atoms: _485  and  _488
REMARK  208  A    between atoms: _488  and  _489
REMARK  209  A    between atoms: _489  and  _490
REMARK  210  A    between atoms: _493  and  _495
REMARK  211  A    between atoms: _495  and  _496
REMARK  212  A    between atoms: _495  and  _498
REMARK  213  A    between atoms: _498  and  _499
REMARK  214  A    between atoms: _501  and  _503
REMARK  215  A    between atoms: _503  and  _504
REMARK  216  A    between atoms: _503  and  _506
REMARK  217  A    between atoms: _506  and  _507
REMARK  218  A    between atoms: _513  and  _515
REMARK  219  A    between atoms: _515  and  _516
REMARK  220  A    between atoms: _515  and  _518
REMARK  221  A    between atoms: _518  and  _519
REMARK  222  A    between atoms: _522  and  _524
REMARK  223  A    between atoms: _524  and  _525
REMARK  224  A    between atoms: _524  and  _527
REMARK  225  A    between atoms: _530  and  _532
REMARK  226  A    between atoms: _532  and  _533
REMARK  227  A    between atoms: _535  and  _537
REMARK  228  A    between atoms: _537  and  _538
REMARK  229  A    between atoms: _537  and  _540
REMARK  230  A    between atoms: _540  and  _541
REMARK  231  A    between atoms: _544  and  _546
REMARK  232  A    between atoms: _546  and  _547
REMARK  233  A    between atoms: _546  and  _549
REMARK  234  A    between atoms: _549  and  _550
REMARK  235  A    between atoms: _550  and  _551
REMARK  236  A    between atoms: _551  and  _552
REMARK  237  A    between atoms: _552  and  _553
REMARK  238  A    between atoms: _557  and  _559
REMARK  239  A    between atoms: _559  and  _560
REMARK  240  A    between atoms: _559  and  _562
REMARK                            x       y       z     vdW  Elec       q    Type
REMARK                         _______ _______ _______ _____ _____    ______ ____
ROOT
ATOM      1  O   HOH     1      -2.263 -13.031 -21.498  0.00  0.00    +0.000 OA
ENDROOT
TORSDOF 0
REMARK  Name = ../refined-set-2016/4o04/4o04_pocket.pdb
REMARK  240 active torsions:
REMARK  status: ('A' for Active; 'I' for Inactive)
REMARK    1  A    between atoms: _1  and  _3
REMARK    2  A    between atoms: _3  and  _4
REMARK    3  A    between atoms: _3  and  _6
REMARK    4  A    between atoms: _6  and  _7
REMARK    5  A    between atoms: _13  and  _15
REMARK    6  A    between atoms: _15  and  _16
REMARK    7  A    between atoms: _15  and  _18
REMARK    8  A    between atoms: _18  and  _19
REMARK    9  A    between atoms: _22  and  _24
REMARK   10  A    between atoms: _24  and  _25
REMARK   11  A    between atoms: _24  and  _27
REMARK   12  A    between atoms: _27  and  _28
REMARK   13  A    between atoms: _31  and  _33
REMARK   14  A    between atoms: _33  and  _34
REMARK   15  A    between atoms: _33  and  _36
REMARK   16  A    between atoms: _36  and  _37
REMARK   17  A    between atoms: _37  and  _38
REMARK   18  A    between atoms: _41  and  _43
REMARK   19  A    between atoms: _43  and  _44
REMARK   20  A    between atoms: _43  and  _46
REMARK   21  A    between atoms: _46  and  _47
REMARK   22  A    between atoms: _50  and  _52
REMARK   23  A    between atoms: _52  and  _53
REMARK   24  A    between atoms: _52  and  _55
REMARK   25  A    between atoms: _55  and  _56
REMARK   26  A    between atoms: _59  and  _61
REMARK   27  A    between atoms: _61  and  _62
REMARK   28  A    between atoms: _61  and  _64
REMARK   29  A    between atoms: _64  and  _65
REMARK   30  A    between atoms: _67  and  _69
REMARK   31  A    between atoms: _69  and  _70
REMARK   32  A    between atoms: _69  and  _72
REMARK   33  A    between atoms: _72  and  _73
REMARK   34  A    between atoms: _78  and  _80
REMARK   35  A    between atoms: _80  and  _81
REMARK   36  A    between atoms: _80  and  _83
REMARK   37  A    between atoms: _83  and  _84
REMARK   38  A    between atoms: _86  and  _88
REMARK   39  A    between atoms: _88  and  _89
REMARK   40  A    between atoms: _88  and  _91
REMARK   41  A    between atoms: _91  and  _92
REMARK   42  A    between atoms: _94  and  _96
REMARK   43  A    between atoms: _96  and  _97
REMARK   44  A    between atoms: _96  and  _99
REMARK   45  A    between atoms: _99  and  _100
REMARK   46  A    between atoms: _103  and  _105
REMARK   47  A    between atoms: _105  and  _106
REMARK   48  A    between atoms: _109  and  _111
REMARK   49  A    between atoms: _111  and  _112
REMARK   50  A    between atoms: _111  and  _114
REMARK   51  A    between atoms: _114  and  _115
REMARK   52  A    between atoms: _118  and  _120
REMARK   53  A    between atoms: _120  and  _121
REMARK   54  A    between atoms: _120  and  _123
REMARK   55  A    between atoms: _123  and  _124
REMARK   56  A    between atoms: _124  and  _125
REMARK   57  A    between atoms: _125  and  _126
REMARK   58  A    between atoms: _126  and  _127
REMARK   59  A    between atoms: _131  and  _133
REMARK   60  A    between atoms: _133  and  _134
REMARK   61  A    between atoms: _133  and  _136
REMARK   62  A    between atoms: _136  and  _137
REMARK   63  A    between atoms: _140  and  _142
REMARK   64  A    between atoms: _142  and  _143
REMARK   65  A    between atoms: _142  and  _145
REMARK   66  A    between atoms: _148  and  _150
REMARK   67  A    between atoms: _150  and  _151
REMARK   68  A    between atoms: _150  and  _153
REMARK   69  A    between atoms: _153  and  _154
REMARK   70  A    between atoms: _157  and  _159
REMARK   71  A    between atoms: _159  and  _160
REMARK   72  A    between atoms: _159  and  _162
REMARK   73  A    between atoms: _162  and  _163
REMARK   74  A    between atoms: _166  and  _168
REMARK   75  A    between atoms: _168  and  _169
REMARK   76  A    between atoms: _171  and  _173
REMARK   77  A    between atoms: _173  and  _174
REMARK   78  A    between atoms: _173  and  _176
REMARK   79  A    between atoms: _176  and  _177
REMARK   80  A    between atoms: _180  and  _182
REMARK   81  A    between atoms: _182  and  _183
REMARK   82  A    between atoms: _185  and  _187
REMARK   83  A    between atoms: _187  and  _188
REMARK   84  A    between atoms: _187  and  _190
REMARK   85  A    between atoms: _190  and  _191
REMARK   86  A    between atoms: _191  and  _192
REMARK   87  A    between atoms: _194  and  _196
REMARK   88  A    between atoms: _196  and  _197
REMARK   89  A    between atoms: _196  and  _199
REMARK   90  A    between atoms: _199  and  _200
REMARK   91  A    between atoms: _203  and  _205
REMARK   92  A    between atoms: _205  and  _206
REMARK   93  A    between atoms: _205  and  _208
REMARK   94  A    between atoms: _208  and  _209
REMARK   95  A    between atoms: _209  and  _210
REMARK   96  A    between atoms: _210  and  _211
REMARK   97  A    between atoms: _211  and  _212
REMARK   98  A    between atoms: _216  and  _218
REMARK   99  A    between atoms: _218  and  _219
REMARK  100  A    between atoms: _222  and  _224
REMARK  101  A    between atoms: _224  and  _225
REMARK  102  A    between atoms: _224  and  _227
REMARK  103  A    between atoms: _227  and  _228
REMARK  104  A    between atoms: _231  and  _233
REMARK  105  A    between atoms: _233  and  _234
REMARK  106  A    between atoms: _233  and  _236
REMARK  107  A    between atoms: _236  and  _237
REMARK  108  A    between atoms: _240  and  _242
REMARK  109  A    between atoms: _242  and  _243
REMARK  110  A    between atoms: _242  and  _245
REMARK  111  A    between atoms: _245  and  _246
REMARK  112  A    between atoms: _249  and  _251
REMARK  113  A    between atoms: _251  and  _252
REMARK  114  A    between atoms: _251  and  _254
REMARK  115  A    between atoms: _254  and  _255
REMARK  116  A    between atoms: _260  and  _262
REMARK  117  A    between atoms: _262  and  _263
REMARK  118  A    between atoms: _262  and  _265
REMARK  119  A    between atoms: _265  and  _266
REMARK  120  A    between atoms: _271  and  _273
REMARK  121  A    between atoms: _273  and  _274
REMARK  122  A    between atoms: _273  and  _276
REMARK  123  A    between atoms: _276  and  _277
REMARK  124  A    between atoms: _280  and  _282
REMARK  125  A    between atoms: _282  and  _283
REMARK  126  A    between atoms: _285  and  _287
REMARK  127  A    between atoms: _287  and  _288
REMARK  128  A    between atoms: _287  and  _290
REMARK  129  A    between atoms: _290  and  _291
REMARK  130  A    between atoms: _294  and  _296
REMARK  131  A    between atoms: _296  and  _297
REMARK  132  A    between atoms: _296  and  _299
REMARK  133  A    between atoms: _299  and  _300
REMARK  134  A    between atoms: _303  and  _305
REMARK  135  A    between atoms: _305  and  _306
REMARK  136  A    between atoms: _309  and  _311
REMARK  137  A    between atoms: _311  and  _312
REMARK  138  A    between atoms: _311  and  _314
REMARK  139  A    between atoms: _314  and  _315
REMARK  140  A    between atoms: _315  and  _316
REMARK  141  A    between atoms: _316  and  _317
REMARK  142  A    between atoms: _317  and  _318
REMARK  143  A    between atoms: _322  and  _324
REMARK  144  A    between atoms: _324  and  _325
REMARK  145  A    between atoms: _327  and  _329
REMARK  146  A    between atoms: _329  and  _330
REMARK  147  A    between atoms: _329  and  _332
REMARK  148  A    between atoms: _332  and  _333
REMARK  149  A    between atoms: _336  and  _338
REMARK  150  A    between atoms: _338  and  _339
REMARK  151  A    between atoms: _341  and  _343
REMARK  152  A    between atoms: _343  and  _344
REMARK  153  A    between atoms: _343  and  _346
REMARK  154  A    between atoms: _346  and  _347
REMARK  155  A    between atoms: _353  and  _355
REMARK  156  A    between atoms: _355  and  _356
REMARK  157  A    between atoms: _358  and  _360
REMARK  158  A    between atoms: _360  and  _361
REMARK  159  A    between atoms: _360  and  _363
REMARK  160  A    between atoms: _366  and  _368
REMARK  161  A    between atoms: _368  and  _369
REMARK  162  A    between atoms: _371  and  _373
REMARK  163  A    between atoms: _373  and  _374
REMARK  164  A    between atoms: _373  and  _376
REMARK  165  A    between atoms: _376  and  _377
REMARK  166  A    between atoms: _383  and  _385
REMARK  167  A    between atoms: _385  and  _386
REMARK  168  A    between atoms: _385  and  _388
REMARK  169  A    between atoms: _388  and  _389
REMARK  170  A    between atoms: _394  and  _395
REMARK  171  A    between atoms: _397  and  _399
REMARK  172  A    between atoms: _399  and  _400
REMARK  173  A    between atoms: _399  and  _402
REMARK  174  A    between atoms: _402  and  _403
REMARK  175  A    between atoms: _408  and  _409
REMARK  176  A    between atoms: _411  and  _413
REMARK  177  A    between atoms: _413  and  _414
REMARK  178  A    between atoms: _413  and  _416
REMARK  179  A    between atoms: _419  and  _421
REMARK  180  A    between atoms: _421  and  _422
REMARK  181  A    between atoms: _421  and  _424
REMARK  182  A    between atoms: _424  and  _425
REMARK  183  A    between atoms: _428  and  _430
REMARK  184  A    between atoms: _430  and  _431
REMARK  185  A    between atoms: _430  and  _433
REMARK  186  A    between atoms: _436  and  _438
REMARK  187  A    between atoms: _438  and  _439
REMARK  188  A    between atoms: _438  and  _441
REMARK  189  A    between atoms: _441  and  _442
REMARK  190  A    between atoms: _445  and  _447
REMARK  191  A    between atoms: _447  and  _448
REMARK  192  A    between atoms: _447  and  _450
REMARK  193  A    between atoms: _450  and  _451
REMARK  194  A    between atoms: _454  and  _456
REMARK  195  A    between atoms: _456  and  _457
REMARK  196  A    between atoms: _456  and  _459
REMARK  197  A    between atoms: _459  and  _460
REMARK  198  A    between atoms: _460  and  _461
REMARK  199  A    between atoms: _461  and  _462
REMARK  200  A    between atoms: _462  and  _463
REMARK  201  A    between atoms: _467  and  _469
REMARK  202  A    between atoms: _469  and  _470
REMARK  203  A    between atoms: _469  and  _472
REMARK  204  A    between atoms: _472  and  _473
REMARK  205  A    between atoms: _483  and  _485
REMARK  206  A    between atoms: _485  and  _486
REMARK  207  A    between atoms: _485  and  _488
REMARK  208  A    between atoms: _488  and  _489
REMARK  209  A    between atoms: _489  and  _490
REMARK  210  A    between atoms: _493  and  _495
REMARK  211  A    between atoms: _495  and  _496
REMARK  212  A    between atoms: _495  and  _498
REMARK  213  A    between atoms: _498  and  _499
REMARK  214  A    between atoms: _501  and  _503
REMARK  215  A    between atoms: _503  and  _504
REMARK  216  A    between atoms: _503  and  _506
REMARK  217  A    between atoms: _506  and  _507
REMARK  218  A    between atoms: _513  and  _515
REMARK  219  A    between atoms: _515  and  _516
REMARK  220  A    between atoms: _515  and  _518
REMARK  221  A    between atoms: _518  and  _519
REMARK  222  A    between atoms: _522  and  _524
REMARK  223  A    between atoms: _524  and  _525
REMARK  224  A    between atoms: _524  and  _527
REMARK  225  A    between atoms: _530  and  _532
REMARK  226  A    between atoms: _532  and  _533
REMARK  227  A    between atoms: _535  and  _537
REMARK  228  A    between atoms: _537  and  _538
REMARK  229  A    between atoms: _537  and  _540
REMARK  230  A    between atoms: _540  and  _541
REMARK  231  A    between atoms: _544  and  _546
REMARK  232  A    between atoms: _546  and  _547
REMARK  233  A    between atoms: _546  and  _549
REMARK  234  A    between atoms: _549  and  _550
REMARK  235  A    between atoms: _550  and  _551
REMARK  236  A    between atoms: _551  and  _552
REMARK  237  A    between atoms: _552  and  _553
REMARK  238  A    between atoms: _557  and  _559
REMARK  239  A    between atoms: _559  and  _560
REMARK  240  A    between atoms: _559  and  _562
REMARK                            x       y       z     vdW  Elec       q    Type
REMARK                         _______ _______ _______ _____ _____    ______ ____
ROOT
ATOM      1  O   HOH     1       2.167  -7.958 -17.043  0.00  0.00    +0.000 OA
ENDROOT
TORSDOF 0
REMARK  Name = ../refined-set-2016/4o04/4o04_pocket.pdb
REMARK  240 active torsions:
REMARK  status: ('A' for Active; 'I' for Inactive)
REMARK    1  A    between atoms: _1  and  _3
REMARK    2  A    between atoms: _3  and  _4
REMARK    3  A    between atoms: _3  and  _6
REMARK    4  A    between atoms: _6  and  _7
REMARK    5  A    between atoms: _13  and  _15
REMARK    6  A    between atoms: _15  and  _16
REMARK    7  A    between atoms: _15  and  _18
REMARK    8  A    between atoms: _18  and  _19
REMARK    9  A    between atoms: _22  and  _24
REMARK   10  A    between atoms: _24  and  _25
REMARK   11  A    between atoms: _24  and  _27
REMARK   12  A    between atoms: _27  and  _28
REMARK   13  A    between atoms: _31  and  _33
REMARK   14  A    between atoms: _33  and  _34
REMARK   15  A    between atoms: _33  and  _36
REMARK   16  A    between atoms: _36  and  _37
REMARK   17  A    between atoms: _37  and  _38
REMARK   18  A    between atoms: _41  and  _43
REMARK   19  A    between atoms: _43  and  _44
REMARK   20  A    between atoms: _43  and  _46
REMARK   21  A    between atoms: _46  and  _47
REMARK   22  A    between atoms: _50  and  _52
REMARK   23  A    between atoms: _52  and  _53
REMARK   24  A    between atoms: _52  and  _55
REMARK   25  A    between atoms: _55  and  _56
REMARK   26  A    between atoms: _59  and  _61
REMARK   27  A    between atoms: _61  and  _62
REMARK   28  A    between atoms: _61  and  _64
REMARK   29  A    between atoms: _64  and  _65
REMARK   30  A    between atoms: _67  and  _69
REMARK   31  A    between atoms: _69  and  _70
REMARK   32  A    between atoms: _69  and  _72
REMARK   33  A    between atoms: _72  and  _73
REMARK   34  A    between atoms: _78  and  _80
REMARK   35  A    between atoms: _80  and  _81
REMARK   36  A    between atoms: _80  and  _83
REMARK   37  A    between atoms: _83  and  _84
REMARK   38  A    between atoms: _86  and  _88
REMARK   39  A    between atoms: _88  and  _89
REMARK   40  A    between atoms: _88  and  _91
REMARK   41  A    between atoms: _91  and  _92
REMARK   42  A    between atoms: _94  and  _96
REMARK   43  A    between atoms: _96  and  _97
REMARK   44  A    between atoms: _96  and  _99
REMARK   45  A    between atoms: _99  and  _100
REMARK   46  A    between atoms: _103  and  _105
REMARK   47  A    between atoms: _105  and  _106
REMARK   48  A    between atoms: _109  and  _111
REMARK   49  A    between atoms: _111  and  _112
REMARK   50  A    between atoms: _111  and  _114
REMARK   51  A    between atoms: _114  and  _115
REMARK   52  A    between atoms: _118  and  _120
REMARK   53  A    between atoms: _120  and  _121
REMARK   54  A    between atoms: _120  and  _123
REMARK   55  A    between atoms: _123  and  _124
REMARK   56  A    between atoms: _124  and  _125
REMARK   57  A    between atoms: _125  and  _126
REMARK   58  A    between atoms: _126  and  _127
REMARK   59  A    between atoms: _131  and  _133
REMARK   60  A    between atoms: _133  and  _134
REMARK   61  A    between atoms: _133  and  _136
REMARK   62  A    between atoms: _136  and  _137
REMARK   63  A    between atoms: _140  and  _142
REMARK   64  A    between atoms: _142  and  _143
REMARK   65  A    between atoms: _142  and  _145
REMARK   66  A    between atoms: _148  and  _150
REMARK   67  A    between atoms: _150  and  _151
REMARK   68  A    between atoms: _150  and  _153
REMARK   69  A    between atoms: _153  and  _154
REMARK   70  A    between atoms: _157  and  _159
REMARK   71  A    between atoms: _159  and  _160
REMARK   72  A    between atoms: _159  and  _162
REMARK   73  A    between atoms: _162  and  _163
REMARK   74  A    between atoms: _166  and  _168
REMARK   75  A    between atoms: _168  and  _169
REMARK   76  A    between atoms: _171  and  _173
REMARK   77  A    between atoms: _173  and  _174
REMARK   78  A    between atoms: _173  and  _176
REMARK   79  A    between atoms: _176  and  _177
REMARK   80  A    between atoms: _180  and  _182
REMARK   81  A    between atoms: _182  and  _183
REMARK   82  A    between atoms: _185  and  _187
REMARK   83  A    between atoms: _187  and  _188
REMARK   84  A    between atoms: _187  and  _190
REMARK   85  A    between atoms: _190  and  _191
REMARK   86  A    between atoms: _191  and  _192
REMARK   87  A    between atoms: _194  and  _196
REMARK   88  A    between atoms: _196  and  _197
REMARK   89  A    between atoms: _196  and  _199
REMARK   90  A    between atoms: _199  and  _200
REMARK   91  A    between atoms: _203  and  _205
REMARK   92  A    between atoms: _205  and  _206
REMARK   93  A    between atoms: _205  and  _208
REMARK   94  A    between atoms: _208  and  _209
REMARK   95  A    between atoms: _209  and  _210
REMARK   96  A    between atoms: _210  and  _211
REMARK   97  A    between atoms: _211  and  _212
REMARK   98  A    between atoms: _216  and  _218
REMARK   99  A    between atoms: _218  and  _219
REMARK  100  A    between atoms: _222  and  _224
REMARK  101  A    between atoms: _224  and  _225
REMARK  102  A    between atoms: _224  and  _227
REMARK  103  A    between atoms: _227  and  _228
REMARK  104  A    between atoms: _231  and  _233
REMARK  105  A    between atoms: _233  and  _234
REMARK  106  A    between atoms: _233  and  _236
REMARK  107  A    between atoms: _236  and  _237
REMARK  108  A    between atoms: _240  and  _242
REMARK  109  A    between atoms: _242  and  _243
REMARK  110  A    between atoms: _242  and  _245
REMARK  111  A    between atoms: _245  and  _246
REMARK  112  A    between atoms: _249  and  _251
REMARK  113  A    between atoms: _251  and  _252
REMARK  114  A    between atoms: _251  and  _254
REMARK  115  A    between atoms: _254  and  _255
REMARK  116  A    between atoms: _260  and  _262
REMARK  117  A    between atoms: _262  and  _263
REMARK  118  A    between atoms: _262  and  _265
REMARK  119  A    between atoms: _265  and  _266
REMARK  120  A    between atoms: _271  and  _273
REMARK  121  A    between atoms: _273  and  _274
REMARK  122  A    between atoms: _273  and  _276
REMARK  123  A    between atoms: _276  and  _277
REMARK  124  A    between atoms: _280  and  _282
REMARK  125  A    between atoms: _282  and  _283
REMARK  126  A    between atoms: _285  and  _287
REMARK  127  A    between atoms: _287  and  _288
REMARK  128  A    between atoms: _287  and  _290
REMARK  129  A    between atoms: _290  and  _291
REMARK  130  A    between atoms: _294  and  _296
REMARK  131  A    between atoms: _296  and  _297
REMARK  132  A    between atoms: _296  and  _299
REMARK  133  A    between atoms: _299  and  _300
REMARK  134  A    between atoms: _303  and  _305
REMARK  135  A    between atoms: _305  and  _306
REMARK  136  A    between atoms: _309  and  _311
REMARK  137  A    between atoms: _311  and  _312
REMARK  138  A    between atoms: _311  and  _314
REMARK  139  A    between atoms: _314  and  _315
REMARK  140  A    between atoms: _315  and  _316
REMARK  141  A    between atoms: _316  and  _317
REMARK  142  A    between atoms: _317  and  _318
REMARK  143  A    between atoms: _322  and  _324
REMARK  144  A    between atoms: _324  and  _325
REMARK  145  A    between atoms: _327  and  _329
REMARK  146  A    between atoms: _329  and  _330
REMARK  147  A    between atoms: _329  and  _332
REMARK  148  A    between atoms: _332  and  _333
REMARK  149  A    between atoms: _336  and  _338
REMARK  150  A    between atoms: _338  and  _339
REMARK  151  A    between atoms: _341  and  _343
REMARK  152  A    between atoms: _343  and  _344
REMARK  153  A    between atoms: _343  and  _346
REMARK  154  A    between atoms: _346  and  _347
REMARK  155  A    between atoms: _353  and  _355
REMARK  156  A    between atoms: _355  and  _356
REMARK  157  A    between atoms: _358  and  _360
REMARK  158  A    between atoms: _360  and  _361
REMARK  159  A    between atoms: _360  and  _363
REMARK  160  A    between atoms: _366  and  _368
REMARK  161  A    between atoms: _368  and  _369
REMARK  162  A    between atoms: _371  and  _373
REMARK  163  A    between atoms: _373  and  _374
REMARK  164  A    between atoms: _373  and  _376
REMARK  165  A    between atoms: _376  and  _377
REMARK  166  A    between atoms: _383  and  _385
REMARK  167  A    between atoms: _385  and  _386
REMARK  168  A    between atoms: _385  and  _388
REMARK  169  A    between atoms: _388  and  _389
REMARK  170  A    between atoms: _394  and  _395
REMARK  171  A    between atoms: _397  and  _399
REMARK  172  A    between atoms: _399  and  _400
REMARK  173  A    between atoms: _399  and  _402
REMARK  174  A    between atoms: _402  and  _403
REMARK  175  A    between atoms: _408  and  _409
REMARK  176  A    between atoms: _411  and  _413
REMARK  177  A    between atoms: _413  and  _414
REMARK  178  A    between atoms: _413  and  _416
REMARK  179  A    between atoms: _419  and  _421
REMARK  180  A    between atoms: _421  and  _422
REMARK  181  A    between atoms: _421  and  _424
REMARK  182  A    between atoms: _424  and  _425
REMARK  183  A    between atoms: _428  and  _430
REMARK  184  A    between atoms: _430  and  _431
REMARK  185  A    between atoms: _430  and  _433
REMARK  186  A    between atoms: _436  and  _438
REMARK  187  A    between atoms: _438  and  _439
REMARK  188  A    between atoms: _438  and  _441
REMARK  189  A    between atoms: _441  and  _442
REMARK  190  A    between atoms: _445  and  _447
REMARK  191  A    between atoms: _447  and  _448
REMARK  192  A    between atoms: _447  and  _450
REMARK  193  A    between atoms: _450  and  _451
REMARK  194  A    between atoms: _454  and  _456
REMARK  195  A    between atoms: _456  and  _457
REMARK  196  A    between atoms: _456  and  _459
REMARK  197  A    between atoms: _459  and  _460
REMARK  198  A    between atoms: _460  and  _461
REMARK  199  A    between atoms: _461  and  _462
REMARK  200  A    between atoms: _462  and  _463
REMARK  201  A    between atoms: _467  and  _469
REMARK  202  A    between atoms: _469  and  _470
REMARK  203  A    between atoms: _469  and  _472
REMARK  204  A    between atoms: _472  and  _473
REMARK  205  A    between atoms: _483  and  _485
REMARK  206  A    between atoms: _485  and  _486
REMARK  207  A    between atoms: _485  and  _488
REMARK  208  A    between atoms: _488  and  _489
REMARK  209  A    between atoms: _489  and  _490
REMARK  210  A    between atoms: _493  and  _495
REMARK  211  A    between atoms: _495  and  _496
REMARK  212  A    between atoms: _495  and  _498
REMARK  213  A    between atoms: _498  and  _499
REMARK  214  A    between atoms: _501  and  _503
REMARK  215  A    between atoms: _503  and  _504
REMARK  216  A    between atoms: _503  and  _506
REMARK  217  A    between atoms: _506  and  _507
REMARK  218  A    between atoms: _513  and  _515
REMARK  219  A    between atoms: _515  and  _516
REMARK  220  A    between atoms: _515  and  _518
REMARK  221  A    between atoms: _518  and  _519
REMARK  222  A    between atoms: _522  and  _524
REMARK  223  A    between atoms: _524  and  _525
REMARK  224  A    between atoms: _524  and  _527
REMARK  225  A    between atoms: _530  and  _532
REMARK  226  A    between atoms: _532  and  _533
REMARK  227  A    between atoms: _535  and  _537
REMARK  228  A    between atoms: _537  and  _538
REMARK  229  A    between atoms: _537  and  _540
REMARK  230  A    between atoms: _540  and  _541
REMARK  231  A    between atoms: _544  and  _546
REMARK  232  A    between atoms: _546  and  _547
REMARK  233  A    between atoms: _546  and  _549
REMARK  234  A    between atoms: _549  and  _550
REMARK  235  A    between atoms: _550  and  _551
REMARK  236  A    between atoms: _551  and  _552
REMARK  237  A    between atoms: _552  and  _553
REMARK  238  A    between atoms: _557  and  _559
REMARK  239  A    between atoms: _559  and  _560
REMARK  240  A    between atoms: _559  and  _562
REMARK                            x       y       z     vdW  Elec       q    Type
REMARK                         _______ _______ _______ _____ _____    ______ ____
ROOT
ATOM      1  O   HOH     1      -0.781  -8.997 -28.296  0.00  0.00    +0.000 OA
ENDROOT
TORSDOF 0
REMARK  Name = ../refined-set-2016/4o04/4o04_pocket.pdb
REMARK  240 active torsions:
REMARK  status: ('A' for Active; 'I' for Inactive)
REMARK    1  A    between atoms: _1  and  _3
REMARK    2  A    between atoms: _3  and  _4
REMARK    3  A    between atoms: _3  and  _6
REMARK    4  A    between atoms: _6  and  _7
REMARK    5  A    between atoms: _13  and  _15
REMARK    6  A    between atoms: _15  and  _16
REMARK    7  A    between atoms: _15  and  _18
REMARK    8  A    between atoms: _18  and  _19
REMARK    9  A    between atoms: _22  and  _24
REMARK   10  A    between atoms: _24  and  _25
REMARK   11  A    between atoms: _24  and  _27
REMARK   12  A    between atoms: _27  and  _28
REMARK   13  A    between atoms: _31  and  _33
REMARK   14  A    between atoms: _33  and  _34
REMARK   15  A    between atoms: _33  and  _36
REMARK   16  A    between atoms: _36  and  _37
REMARK   17  A    between atoms: _37  and  _38
REMARK   18  A    between atoms: _41  and  _43
REMARK   19  A    between atoms: _43  and  _44
REMARK   20  A    between atoms: _43  and  _46
REMARK   21  A    between atoms: _46  and  _47
REMARK   22  A    between atoms: _50  and  _52
REMARK   23  A    between atoms: _52  and  _53
REMARK   24  A    between atoms: _52  and  _55
REMARK   25  A    between atoms: _55  and  _56
REMARK   26  A    between atoms: _59  and  _61
REMARK   27  A    between atoms: _61  and  _62
REMARK   28  A    between atoms: _61  and  _64
REMARK   29  A    between atoms: _64  and  _65
REMARK   30  A    between atoms: _67  and  _69
REMARK   31  A    between atoms: _69  and  _70
REMARK   32  A    between atoms: _69  and  _72
REMARK   33  A    between atoms: _72  and  _73
REMARK   34  A    between atoms: _78  and  _80
REMARK   35  A    between atoms: _80  and  _81
REMARK   36  A    between atoms: _80  and  _83
REMARK   37  A    between atoms: _83  and  _84
REMARK   38  A    between atoms: _86  and  _88
REMARK   39  A    between atoms: _88  and  _89
REMARK   40  A    between atoms: _88  and  _91
REMARK   41  A    between atoms: _91  and  _92
REMARK   42  A    between atoms: _94  and  _96
REMARK   43  A    between atoms: _96  and  _97
REMARK   44  A    between atoms: _96  and  _99
REMARK   45  A    between atoms: _99  and  _100
REMARK   46  A    between atoms: _103  and  _105
REMARK   47  A    between atoms: _105  and  _106
REMARK   48  A    between atoms: _109  and  _111
REMARK   49  A    between atoms: _111  and  _112
REMARK   50  A    between atoms: _111  and  _114
REMARK   51  A    between atoms: _114  and  _115
REMARK   52  A    between atoms: _118  and  _120
REMARK   53  A    between atoms: _120  and  _121
REMARK   54  A    between atoms: _120  and  _123
REMARK   55  A    between atoms: _123  and  _124
REMARK   56  A    between atoms: _124  and  _125
REMARK   57  A    between atoms: _125  and  _126
REMARK   58  A    between atoms: _126  and  _127
REMARK   59  A    between atoms: _131  and  _133
REMARK   60  A    between atoms: _133  and  _134
REMARK   61  A    between atoms: _133  and  _136
REMARK   62  A    between atoms: _136  and  _137
REMARK   63  A    between atoms: _140  and  _142
REMARK   64  A    between atoms: _142  and  _143
REMARK   65  A    between atoms: _142  and  _145
REMARK   66  A    between atoms: _148  and  _150
REMARK   67  A    between atoms: _150  and  _151
REMARK   68  A    between atoms: _150  and  _153
REMARK   69  A    between atoms: _153  and  _154
REMARK   70  A    between atoms: _157  and  _159
REMARK   71  A    between atoms: _159  and  _160
REMARK   72  A    between atoms: _159  and  _162
REMARK   73  A    between atoms: _162  and  _163
REMARK   74  A    between atoms: _166  and  _168
REMARK   75  A    between atoms: _168  and  _169
REMARK   76  A    between atoms: _171  and  _173
REMARK   77  A    between atoms: _173  and  _174
REMARK   78  A    between atoms: _173  and  _176
REMARK   79  A    between atoms: _176  and  _177
REMARK   80  A    between atoms: _180  and  _182
REMARK   81  A    between atoms: _182  and  _183
REMARK   82  A    between atoms: _185  and  _187
REMARK   83  A    between atoms: _187  and  _188
REMARK   84  A    between atoms: _187  and  _190
REMARK   85  A    between atoms: _190  and  _191
REMARK   86  A    between atoms: _191  and  _192
REMARK   87  A    between atoms: _194  and  _196
REMARK   88  A    between atoms: _196  and  _197
REMARK   89  A    between atoms: _196  and  _199
REMARK   90  A    between atoms: _199  and  _200
REMARK   91  A    between atoms: _203  and  _205
REMARK   92  A    between atoms: _205  and  _206
REMARK   93  A    between atoms: _205  and  _208
REMARK   94  A    between atoms: _208  and  _209
REMARK   95  A    between atoms: _209  and  _210
REMARK   96  A    between atoms: _210  and  _211
REMARK   97  A    between atoms: _211  and  _212
REMARK   98  A    between atoms: _216  and  _218
REMARK   99  A    between atoms: _218  and  _219
REMARK  100  A    between atoms: _222  and  _224
REMARK  101  A    between atoms: _224  and  _225
REMARK  102  A    between atoms: _224  and  _227
REMARK  103  A    between atoms: _227  and  _228
REMARK  104  A    between atoms: _231  and  _233
REMARK  105  A    between atoms: _233  and  _234
REMARK  106  A    between atoms: _233  and  _236
REMARK  107  A    between atoms: _236  and  _237
REMARK  108  A    between atoms: _240  and  _242
REMARK  109  A    between atoms: _242  and  _243
REMARK  110  A    between atoms: _242  and  _245
REMARK  111  A    between atoms: _245  and  _246
REMARK  112  A    between atoms: _249  and  _251
REMARK  113  A    between atoms: _251  and  _252
REMARK  114  A    between atoms: _251  and  _254
REMARK  115  A    between atoms: _254  and  _255
REMARK  116  A    between atoms: _260  and  _262
REMARK  117  A    between atoms: _262  and  _263
REMARK  118  A    between atoms: _262  and  _265
REMARK  119  A    between atoms: _265  and  _266
REMARK  120  A    between atoms: _271  and  _273
REMARK  121  A    between atoms: _273  and  _274
REMARK  122  A    between atoms: _273  and  _276
REMARK  123  A    between atoms: _276  and  _277
REMARK  124  A    between atoms: _280  and  _282
REMARK  125  A    between atoms: _282  and  _283
REMARK  126  A    between atoms: _285  and  _287
REMARK  127  A    between atoms: _287  and  _288
REMARK  128  A    between atoms: _287  and  _290
REMARK  129  A    between atoms: _290  and  _291
REMARK  130  A    between atoms: _294  and  _296
REMARK  131  A    between atoms: _296  and  _297
REMARK  132  A    between atoms: _296  and  _299
REMARK  133  A    between atoms: _299  and  _300
REMARK  134  A    between atoms: _303  and  _305
REMARK  135  A    between atoms: _305  and  _306
REMARK  136  A    between atoms: _309  and  _311
REMARK  137  A    between atoms: _311  and  _312
REMARK  138  A    between atoms: _311  and  _314
REMARK  139  A    between atoms: _314  and  _315
REMARK  140  A    between atoms: _315  and  _316
REMARK  141  A    between atoms: _316  and  _317
REMARK  142  A    between atoms: _317  and  _318
REMARK  143  A    between atoms: _322  and  _324
REMARK  144  A    between atoms: _324  and  _325
REMARK  145  A    between atoms: _327  and  _329
REMARK  146  A    between atoms: _329  and  _330
REMARK  147  A    between atoms: _329  and  _332
REMARK  148  A    between atoms: _332  and  _333
REMARK  149  A    between atoms: _336  and  _338
REMARK  150  A    between atoms: _338  and  _339
REMARK  151  A    between atoms: _341  and  _343
REMARK  152  A    between atoms: _343  and  _344
REMARK  153  A    between atoms: _343  and  _346
REMARK  154  A    between atoms: _346  and  _347
REMARK  155  A    between atoms: _353  and  _355
REMARK  156  A    between atoms: _355  and  _356
REMARK  157  A    between atoms: _358  and  _360
REMARK  158  A    between atoms: _360  and  _361
REMARK  159  A    between atoms: _360  and  _363
REMARK  160  A    between atoms: _366  and  _368
REMARK  161  A    between atoms: _368  and  _369
REMARK  162  A    between atoms: _371  and  _373
REMARK  163  A    between atoms: _373  and  _374
REMARK  164  A    between atoms: _373  and  _376
REMARK  165  A    between atoms: _376  and  _377
REMARK  166  A    between atoms: _383  and  _385
REMARK  167  A    between atoms: _385  and  _386
REMARK  168  A    between atoms: _385  and  _388
REMARK  169  A    between atoms: _388  and  _389
REMARK  170  A    between atoms: _394  and  _395
REMARK  171  A    between atoms: _397  and  _399
REMARK  172  A    between atoms: _399  and  _400
REMARK  173  A    between atoms: _399  and  _402
REMARK  174  A    between atoms: _402  and  _403
REMARK  175  A    between atoms: _408  and  _409
REMARK  176  A    between atoms: _411  and  _413
REMARK  177  A    between atoms: _413  and  _414
REMARK  178  A    between atoms: _413  and  _416
REMARK  179  A    between atoms: _419  and  _421
REMARK  180  A    between atoms: _421  and  _422
REMARK  181  A    between atoms: _421  and  _424
REMARK  182  A    between atoms: _424  and  _425
REMARK  183  A    between atoms: _428  and  _430
REMARK  184  A    between atoms: _430  and  _431
REMARK  185  A    between atoms: _430  and  _433
REMARK  186  A    between atoms: _436  and  _438
REMARK  187  A    between atoms: _438  and  _439
REMARK  188  A    between atoms: _438  and  _441
REMARK  189  A    between atoms: _441  and  _442
REMARK  190  A    between atoms: _445  and  _447
REMARK  191  A    between atoms: _447  and  _448
REMARK  192  A    between atoms: _447  and  _450
REMARK  193  A    between atoms: _450  and  _451
REMARK  194  A    between atoms: _454  and  _456
REMARK  195  A    between atoms: _456  and  _457
REMARK  196  A    between atoms: _456  and  _459
REMARK  197  A    between atoms: _459  and  _460
REMARK  198  A    between atoms: _460  and  _461
REMARK  199  A    between atoms: _461  and  _462
REMARK  200  A    between atoms: _462  and  _463
REMARK  201  A    between atoms: _467  and  _469
REMARK  202  A    between atoms: _469  and  _470
REMARK  203  A    between atoms: _469  and  _472
REMARK  204  A    between atoms: _472  and  _473
REMARK  205  A    between atoms: _483  and  _485
REMARK  206  A    between atoms: _485  and  _486
REMARK  207  A    between atoms: _485  and  _488
REMARK  208  A    between atoms: _488  and  _489
REMARK  209  A    between atoms: _489  and  _490
REMARK  210  A    between atoms: _493  and  _495
REMARK  211  A    between atoms: _495  and  _496
REMARK  212  A    between atoms: _495  and  _498
REMARK  213  A    between atoms: _498  and  _499
REMARK  214  A    between atoms: _501  and  _503
REMARK  215  A    between atoms: _503  and  _504
REMARK  216  A    between atoms: _503  and  _506
REMARK  217  A    between atoms: _506  and  _507
REMARK  218  A    between atoms: _513  and  _515
REMARK  219  A    between atoms: _515  and  _516
REMARK  220  A    between atoms: _515  and  _518
REMARK  221  A    between atoms: _518  and  _519
REMARK  222  A    between atoms: _522  and  _524
REMARK  223  A    between atoms: _524  and  _525
REMARK  224  A    between atoms: _524  and  _527
REMARK  225  A    between atoms: _530  and  _532
REMARK  226  A    between atoms: _532  and  _533
REMARK  227  A    between atoms: _535  and  _537
REMARK  228  A    between atoms: _537  and  _538
REMARK  229  A    between atoms: _537  and  _540
REMARK  230  A    between atoms: _540  and  _541
REMARK  231  A    between atoms: _544  and  _546
REMARK  232  A    between atoms: _546  and  _547
REMARK  233  A    between atoms: _546  and  _549
REMARK  234  A    between atoms: _549  and  _550
REMARK  235  A    between atoms: _550  and  _551
REMARK  236  A    between atoms: _551  and  _552
REMARK  237  A    between atoms: _552  and  _553
REMARK  238  A    between atoms: _557  and  _559
REMARK  239  A    between atoms: _559  and  _560
REMARK  240  A    between atoms: _559  and  _562
REMARK                            x       y       z     vdW  Elec       q    Type
REMARK                         _______ _______ _______ _____ _____    ______ ____
ROOT
ATOM      1  O   HOH     1       9.668 -15.670 -27.331  0.00  0.00    +0.000 OA
ENDROOT
TORSDOF 0
REMARK  Name = ../refined-set-2016/4o04/4o04_pocket.pdb
REMARK  240 active torsions:
REMARK  status: ('A' for Active; 'I' for Inactive)
REMARK    1  A    between atoms: _1  and  _3
REMARK    2  A    between atoms: _3  and  _4
REMARK    3  A    between atoms: _3  and  _6
REMARK    4  A    between atoms: _6  and  _7
REMARK    5  A    between atoms: _13  and  _15
REMARK    6  A    between atoms: _15  and  _16
REMARK    7  A    between atoms: _15  and  _18
REMARK    8  A    between atoms: _18  and  _19
REMARK    9  A    between atoms: _22  and  _24
REMARK   10  A    between atoms: _24  and  _25
REMARK   11  A    between atoms: _24  and  _27
REMARK   12  A    between atoms: _27  and  _28
REMARK   13  A    between atoms: _31  and  _33
REMARK   14  A    between atoms: _33  and  _34
REMARK   15  A    between atoms: _33  and  _36
REMARK   16  A    between atoms: _36  and  _37
REMARK   17  A    between atoms: _37  and  _38
REMARK   18  A    between atoms: _41  and  _43
REMARK   19  A    between atoms: _43  and  _44
REMARK   20  A    between atoms: _43  and  _46
REMARK   21  A    between atoms: _46  and  _47
REMARK   22  A    between atoms: _50  and  _52
REMARK   23  A    between atoms: _52  and  _53
REMARK   24  A    between atoms: _52  and  _55
REMARK   25  A    between atoms: _55  and  _56
REMARK   26  A    between atoms: _59  and  _61
REMARK   27  A    between atoms: _61  and  _62
REMARK   28  A    between atoms: _61  and  _64
REMARK   29  A    between atoms: _64  and  _65
REMARK   30  A    between atoms: _67  and  _69
REMARK   31  A    between atoms: _69  and  _70
REMARK   32  A    between atoms: _69  and  _72
REMARK   33  A    between atoms: _72  and  _73
REMARK   34  A    between atoms: _78  and  _80
REMARK   35  A    between atoms: _80  and  _81
REMARK   36  A    between atoms: _80  and  _83
REMARK   37  A    between atoms: _83  and  _84
REMARK   38  A    between atoms: _86  and  _88
REMARK   39  A    between atoms: _88  and  _89
REMARK   40  A    between atoms: _88  and  _91
REMARK   41  A    between atoms: _91  and  _92
REMARK   42  A    between atoms: _94  and  _96
REMARK   43  A    between atoms: _96  and  _97
REMARK   44  A    between atoms: _96  and  _99
REMARK   45  A    between atoms: _99  and  _100
REMARK   46  A    between atoms: _103  and  _105
REMARK   47  A    between atoms: _105  and  _106
REMARK   48  A    between atoms: _109  and  _111
REMARK   49  A    between atoms: _111  and  _112
REMARK   50  A    between atoms: _111  and  _114
REMARK   51  A    between atoms: _114  and  _115
REMARK   52  A    between atoms: _118  and  _120
REMARK   53  A    between atoms: _120  and  _121
REMARK   54  A    between atoms: _120  and  _123
REMARK   55  A    between atoms: _123  and  _124
REMARK   56  A    between atoms: _124  and  _125
REMARK   57  A    between atoms: _125  and  _126
REMARK   58  A    between atoms: _126  and  _127
REMARK   59  A    between atoms: _131  and  _133
REMARK   60  A    between atoms: _133  and  _134
REMARK   61  A    between atoms: _133  and  _136
REMARK   62  A    between atoms: _136  and  _137
REMARK   63  A    between atoms: _140  and  _142
REMARK   64  A    between atoms: _142  and  _143
REMARK   65  A    between atoms: _142  and  _145
REMARK   66  A    between atoms: _148  and  _150
REMARK   67  A    between atoms: _150  and  _151
REMARK   68  A    between atoms: _150  and  _153
REMARK   69  A    between atoms: _153  and  _154
REMARK   70  A    between atoms: _157  and  _159
REMARK   71  A    between atoms: _159  and  _160
REMARK   72  A    between atoms: _159  and  _162
REMARK   73  A    between atoms: _162  and  _163
REMARK   74  A    between atoms: _166  and  _168
REMARK   75  A    between atoms: _168  and  _169
REMARK   76  A    between atoms: _171  and  _173
REMARK   77  A    between atoms: _173  and  _174
REMARK   78  A    between atoms: _173  and  _176
REMARK   79  A    between atoms: _176  and  _177
REMARK   80  A    between atoms: _180  and  _182
REMARK   81  A    between atoms: _182  and  _183
REMARK   82  A    between atoms: _185  and  _187
REMARK   83  A    between atoms: _187  and  _188
REMARK   84  A    between atoms: _187  and  _190
REMARK   85  A    between atoms: _190  and  _191
REMARK   86  A    between atoms: _191  and  _192
REMARK   87  A    between atoms: _194  and  _196
REMARK   88  A    between atoms: _196  and  _197
REMARK   89  A    between atoms: _196  and  _199
REMARK   90  A    between atoms: _199  and  _200
REMARK   91  A    between atoms: _203  and  _205
REMARK   92  A    between atoms: _205  and  _206
REMARK   93  A    between atoms: _205  and  _208
REMARK   94  A    between atoms: _208  and  _209
REMARK   95  A    between atoms: _209  and  _210
REMARK   96  A    between atoms: _210  and  _211
REMARK   97  A    between atoms: _211  and  _212
REMARK   98  A    between atoms: _216  and  _218
REMARK   99  A    between atoms: _218  and  _219
REMARK  100  A    between atoms: _222  and  _224
REMARK  101  A    between atoms: _224  and  _225
REMARK  102  A    between atoms: _224  and  _227
REMARK  103  A    between atoms: _227  and  _228
REMARK  104  A    between atoms: _231  and  _233
REMARK  105  A    between atoms: _233  and  _234
REMARK  106  A    between atoms: _233  and  _236
REMARK  107  A    between atoms: _236  and  _237
REMARK  108  A    between atoms: _240  and  _242
REMARK  109  A    between atoms: _242  and  _243
REMARK  110  A    between atoms: _242  and  _245
REMARK  111  A    between atoms: _245  and  _246
REMARK  112  A    between atoms: _249  and  _251
REMARK  113  A    between atoms: _251  and  _252
REMARK  114  A    between atoms: _251  and  _254
REMARK  115  A    between atoms: _254  and  _255
REMARK  116  A    between atoms: _260  and  _262
REMARK  117  A    between atoms: _262  and  _263
REMARK  118  A    between atoms: _262  and  _265
REMARK  119  A    between atoms: _265  and  _266
REMARK  120  A    between atoms: _271  and  _273
REMARK  121  A    between atoms: _273  and  _274
REMARK  122  A    between atoms: _273  and  _276
REMARK  123  A    between atoms: _276  and  _277
REMARK  124  A    between atoms: _280  and  _282
REMARK  125  A    between atoms: _282  and  _283
REMARK  126  A    between atoms: _285  and  _287
REMARK  127  A    between atoms: _287  and  _288
REMARK  128  A    between atoms: _287  and  _290
REMARK  129  A    between atoms: _290  and  _291
REMARK  130  A    between atoms: _294  and  _296
REMARK  131  A    between atoms: _296  and  _297
REMARK  132  A    between atoms: _296  and  _299
REMARK  133  A    between atoms: _299  and  _300
REMARK  134  A    between atoms: _303  and  _305
REMARK  135  A    between atoms: _305  and  _306
REMARK  136  A    between atoms: _309  and  _311
REMARK  137  A    between atoms: _311  and  _312
REMARK  138  A    between atoms: _311  and  _314
REMARK  139  A    between atoms: _314  and  _315
REMARK  140  A    between atoms: _315  and  _316
REMARK  141  A    between atoms: _316  and  _317
REMARK  142  A    between atoms: _317  and  _318
REMARK  143  A    between atoms: _322  and  _324
REMARK  144  A    between atoms: _324  and  _325
REMARK  145  A    between atoms: _327  and  _329
REMARK  146  A    between atoms: _329  and  _330
REMARK  147  A    between atoms: _329  and  _332
REMARK  148  A    between atoms: _332  and  _333
REMARK  149  A    between atoms: _336  and  _338
REMARK  150  A    between atoms: _338  and  _339
REMARK  151  A    between atoms: _341  and  _343
REMARK  152  A    between atoms: _343  and  _344
REMARK  153  A    between atoms: _343  and  _346
REMARK  154  A    between atoms: _346  and  _347
REMARK  155  A    between atoms: _353  and  _355
REMARK  156  A    between atoms: _355  and  _356
REMARK  157  A    between atoms: _358  and  _360
REMARK  158  A    between atoms: _360  and  _361
REMARK  159  A    between atoms: _360  and  _363
REMARK  160  A    between atoms: _366  and  _368
REMARK  161  A    between atoms: _368  and  _369
REMARK  162  A    between atoms: _371  and  _373
REMARK  163  A    between atoms: _373  and  _374
REMARK  164  A    between atoms: _373  and  _376
REMARK  165  A    between atoms: _376  and  _377
REMARK  166  A    between atoms: _383  and  _385
REMARK  167  A    between atoms: _385  and  _386
REMARK  168  A    between atoms: _385  and  _388
REMARK  169  A    between atoms: _388  and  _389
REMARK  170  A    between atoms: _394  and  _395
REMARK  171  A    between atoms: _397  and  _399
REMARK  172  A    between atoms: _399  and  _400
REMARK  173  A    between atoms: _399  and  _402
REMARK  174  A    between atoms: _402  and  _403
REMARK  175  A    between atoms: _408  and  _409
REMARK  176  A    between atoms: _411  and  _413
REMARK  177  A    between atoms: _413  and  _414
REMARK  178  A    between atoms: _413  and  _416
REMARK  179  A    between atoms: _419  and  _421
REMARK  180  A    between atoms: _421  and  _422
REMARK  181  A    between atoms: _421  and  _424
REMARK  182  A    between atoms: _424  and  _425
REMARK  183  A    between atoms: _428  and  _430
REMARK  184  A    between atoms: _430  and  _431
REMARK  185  A    between atoms: _430  and  _433
REMARK  186  A    between atoms: _436  and  _438
REMARK  187  A    between atoms: _438  and  _439
REMARK  188  A    between atoms: _438  and  _441
REMARK  189  A    between atoms: _441  and  _442
REMARK  190  A    between atoms: _445  and  _447
REMARK  191  A    between atoms: _447  and  _448
REMARK  192  A    between atoms: _447  and  _450
REMARK  193  A    between atoms: _450  and  _451
REMARK  194  A    between atoms: _454  and  _456
REMARK  195  A    between atoms: _456  and  _457
REMARK  196  A    between atoms: _456  and  _459
REMARK  197  A    between atoms: _459  and  _460
REMARK  198  A    between atoms: _460  and  _461
REMARK  199  A    between atoms: _461  and  _462
REMARK  200  A    between atoms: _462  and  _463
REMARK  201  A    between atoms: _467  and  _469
REMARK  202  A    between atoms: _469  and  _470
REMARK  203  A    between atoms: _469  and  _472
REMARK  204  A    between atoms: _472  and  _473
REMARK  205  A    between atoms: _483  and  _485
REMARK  206  A    between atoms: _485  and  _486
REMARK  207  A    between atoms: _485  and  _488
REMARK  208  A    between atoms: _488  and  _489
REMARK  209  A    between atoms: _489  and  _490
REMARK  210  A    between atoms: _493  and  _495
REMARK  211  A    between atoms: _495  and  _496
REMARK  212  A    between atoms: _495  and  _498
REMARK  213  A    between atoms: _498  and  _499
REMARK  214  A    between atoms: _501  and  _503
REMARK  215  A    between atoms: _503  and  _504
REMARK  216  A    between atoms: _503  and  _506
REMARK  217  A    between atoms: _506  and  _507
REMARK  218  A    between atoms: _513  and  _515
REMARK  219  A    between atoms: _515  and  _516
REMARK  220  A    between atoms: _515  and  _518
REMARK  221  A    between atoms: _518  and  _519
REMARK  222  A    between atoms: _522  and  _524
REMARK  223  A    between atoms: _524  and  _525
REMARK  224  A    between atoms: _524  and  _527
REMARK  225  A    between atoms: _530  and  _532
REMARK  226  A    between atoms: _532  and  _533
REMARK  227  A    between atoms: _535  and  _537
REMARK  228  A    between atoms: _537  and  _538
REMARK  229  A    between atoms: _537  and  _540
REMARK  230  A    between atoms: _540  and  _541
REMARK  231  A    between atoms: _544  and  _546
REMARK  232  A    between atoms: _546  and  _547
REMARK  233  A    between atoms: _546  and  _549
REMARK  234  A    between atoms: _549  and  _550
REMARK  235  A    between atoms: _550  and  _551
REMARK  236  A    between atoms: _551  and  _552
REMARK  237  A    between atoms: _552  and  _553
REMARK  238  A    between atoms: _557  and  _559
REMARK  239  A    between atoms: _559  and  _560
REMARK  240  A    between atoms: _559  and  _562
REMARK                            x       y       z     vdW  Elec       q    Type
REMARK                         _______ _______ _______ _____ _____    ______ ____
ROOT
ATOM      1  O   HOH     1      10.138 -12.512 -29.157  0.00  0.00    +0.000 OA
ENDROOT
TORSDOF 0
REMARK  Name = ../refined-set-2016/4o04/4o04_pocket.pdb
REMARK  240 active torsions:
REMARK  status: ('A' for Active; 'I' for Inactive)
REMARK    1  A    between atoms: _1  and  _3
REMARK    2  A    between atoms: _3  and  _4
REMARK    3  A    between atoms: _3  and  _6
REMARK    4  A    between atoms: _6  and  _7
REMARK    5  A    between atoms: _13  and  _15
REMARK    6  A    between atoms: _15  and  _16
REMARK    7  A    between atoms: _15  and  _18
REMARK    8  A    between atoms: _18  and  _19
REMARK    9  A    between atoms: _22  and  _24
REMARK   10  A    between atoms: _24  and  _25
REMARK   11  A    between atoms: _24  and  _27
REMARK   12  A    between atoms: _27  and  _28
REMARK   13  A    between atoms: _31  and  _33
REMARK   14  A    between atoms: _33  and  _34
REMARK   15  A    between atoms: _33  and  _36
REMARK   16  A    between atoms: _36  and  _37
REMARK   17  A    between atoms: _37  and  _38
REMARK   18  A    between atoms: _41  and  _43
REMARK   19  A    between atoms: _43  and  _44
REMARK   20  A    between atoms: _43  and  _46
REMARK   21  A    between atoms: _46  and  _47
REMARK   22  A    between atoms: _50  and  _52
REMARK   23  A    between atoms: _52  and  _53
REMARK   24  A    between atoms: _52  and  _55
REMARK   25  A    between atoms: _55  and  _56
REMARK   26  A    between atoms: _59  and  _61
REMARK   27  A    between atoms: _61  and  _62
REMARK   28  A    between atoms: _61  and  _64
REMARK   29  A    between atoms: _64  and  _65
REMARK   30  A    between atoms: _67  and  _69
REMARK   31  A    between atoms: _69  and  _70
REMARK   32  A    between atoms: _69  and  _72
REMARK   33  A    between atoms: _72  and  _73
REMARK   34  A    between atoms: _78  and  _80
REMARK   35  A    between atoms: _80  and  _81
REMARK   36  A    between atoms: _80  and  _83
REMARK   37  A    between atoms: _83  and  _84
REMARK   38  A    between atoms: _86  and  _88
REMARK   39  A    between atoms: _88  and  _89
REMARK   40  A    between atoms: _88  and  _91
REMARK   41  A    between atoms: _91  and  _92
REMARK   42  A    between atoms: _94  and  _96
REMARK   43  A    between atoms: _96  and  _97
REMARK   44  A    between atoms: _96  and  _99
REMARK   45  A    between atoms: _99  and  _100
REMARK   46  A    between atoms: _103  and  _105
REMARK   47  A    between atoms: _105  and  _106
REMARK   48  A    between atoms: _109  and  _111
REMARK   49  A    between atoms: _111  and  _112
REMARK   50  A    between atoms: _111  and  _114
REMARK   51  A    between atoms: _114  and  _115
REMARK   52  A    between atoms: _118  and  _120
REMARK   53  A    between atoms: _120  and  _121
REMARK   54  A    between atoms: _120  and  _123
REMARK   55  A    between atoms: _123  and  _124
REMARK   56  A    between atoms: _124  and  _125
REMARK   57  A    between atoms: _125  and  _126
REMARK   58  A    between atoms: _126  and  _127
REMARK   59  A    between atoms: _131  and  _133
REMARK   60  A    between atoms: _133  and  _134
REMARK   61  A    between atoms: _133  and  _136
REMARK   62  A    between atoms: _136  and  _137
REMARK   63  A    between atoms: _140  and  _142
REMARK   64  A    between atoms: _142  and  _143
REMARK   65  A    between atoms: _142  and  _145
REMARK   66  A    between atoms: _148  and  _150
REMARK   67  A    between atoms: _150  and  _151
REMARK   68  A    between atoms: _150  and  _153
REMARK   69  A    between atoms: _153  and  _154
REMARK   70  A    between atoms: _157  and  _159
REMARK   71  A    between atoms: _159  and  _160
REMARK   72  A    between atoms: _159  and  _162
REMARK   73  A    between atoms: _162  and  _163
REMARK   74  A    between atoms: _166  and  _168
REMARK   75  A    between atoms: _168  and  _169
REMARK   76  A    between atoms: _171  and  _173
REMARK   77  A    between atoms: _173  and  _174
REMARK   78  A    between atoms: _173  and  _176
REMARK   79  A    between atoms: _176  and  _177
REMARK   80  A    between atoms: _180  and  _182
REMARK   81  A    between atoms: _182  and  _183
REMARK   82  A    between atoms: _185  and  _187
REMARK   83  A    between atoms: _187  and  _188
REMARK   84  A    between atoms: _187  and  _190
REMARK   85  A    between atoms: _190  and  _191
REMARK   86  A    between atoms: _191  and  _192
REMARK   87  A    between atoms: _194  and  _196
REMARK   88  A    between atoms: _196  and  _197
REMARK   89  A    between atoms: _196  and  _199
REMARK   90  A    between atoms: _199  and  _200
REMARK   91  A    between atoms: _203  and  _205
REMARK   92  A    between atoms: _205  and  _206
REMARK   93  A    between atoms: _205  and  _208
REMARK   94  A    between atoms: _208  and  _209
REMARK   95  A    between atoms: _209  and  _210
REMARK   96  A    between atoms: _210  and  _211
REMARK   97  A    between atoms: _211  and  _212
REMARK   98  A    between atoms: _216  and  _218
REMARK   99  A    between atoms: _218  and  _219
REMARK  100  A    between atoms: _222  and  _224
REMARK  101  A    between atoms: _224  and  _225
REMARK  102  A    between atoms: _224  and  _227
REMARK  103  A    between atoms: _227  and  _228
REMARK  104  A    between atoms: _231  and  _233
REMARK  105  A    between atoms: _233  and  _234
REMARK  106  A    between atoms: _233  and  _236
REMARK  107  A    between atoms: _236  and  _237
REMARK  108  A    between atoms: _240  and  _242
REMARK  109  A    between atoms: _242  and  _243
REMARK  110  A    between atoms: _242  and  _245
REMARK  111  A    between atoms: _245  and  _246
REMARK  112  A    between atoms: _249  and  _251
REMARK  113  A    between atoms: _251  and  _252
REMARK  114  A    between atoms: _251  and  _254
REMARK  115  A    between atoms: _254  and  _255
REMARK  116  A    between atoms: _260  and  _262
REMARK  117  A    between atoms: _262  and  _263
REMARK  118  A    between atoms: _262  and  _265
REMARK  119  A    between atoms: _265  and  _266
REMARK  120  A    between atoms: _271  and  _273
REMARK  121  A    between atoms: _273  and  _274
REMARK  122  A    between atoms: _273  and  _276
REMARK  123  A    between atoms: _276  and  _277
REMARK  124  A    between atoms: _280  and  _282
REMARK  125  A    between atoms: _282  and  _283
REMARK  126  A    between atoms: _285  and  _287
REMARK  127  A    between atoms: _287  and  _288
REMARK  128  A    between atoms: _287  and  _290
REMARK  129  A    between atoms: _290  and  _291
REMARK  130  A    between atoms: _294  and  _296
REMARK  131  A    between atoms: _296  and  _297
REMARK  132  A    between atoms: _296  and  _299
REMARK  133  A    between atoms: _299  and  _300
REMARK  134  A    between atoms: _303  and  _305
REMARK  135  A    between atoms: _305  and  _306
REMARK  136  A    between atoms: _309  and  _311
REMARK  137  A    between atoms: _311  and  _312
REMARK  138  A    between atoms: _311  and  _314
REMARK  139  A    between atoms: _314  and  _315
REMARK  140  A    between atoms: _315  and  _316
REMARK  141  A    between atoms: _316  and  _317
REMARK  142  A    between atoms: _317  and  _318
REMARK  143  A    between atoms: _322  and  _324
REMARK  144  A    between atoms: _324  and  _325
REMARK  145  A    between atoms: _327  and  _329
REMARK  146  A    between atoms: _329  and  _330
REMARK  147  A    between atoms: _329  and  _332
REMARK  148  A    between atoms: _332  and  _333
REMARK  149  A    between atoms: _336  and  _338
REMARK  150  A    between atoms: _338  and  _339
REMARK  151  A    between atoms: _341  and  _343
REMARK  152  A    between atoms: _343  and  _344
REMARK  153  A    between atoms: _343  and  _346
REMARK  154  A    between atoms: _346  and  _347
REMARK  155  A    between atoms: _353  and  _355
REMARK  156  A    between atoms: _355  and  _356
REMARK  157  A    between atoms: _358  and  _360
REMARK  158  A    between atoms: _360  and  _361
REMARK  159  A    between atoms: _360  and  _363
REMARK  160  A    between atoms: _366  and  _368
REMARK  161  A    between atoms: _368  and  _369
REMARK  162  A    between atoms: _371  and  _373
REMARK  163  A    between atoms: _373  and  _374
REMARK  164  A    between atoms: _373  and  _376
REMARK  165  A    between atoms: _376  and  _377
REMARK  166  A    between atoms: _383  and  _385
REMARK  167  A    between atoms: _385  and  _386
REMARK  168  A    between atoms: _385  and  _388
REMARK  169  A    between atoms: _388  and  _389
REMARK  170  A    between atoms: _394  and  _395
REMARK  171  A    between atoms: _397  and  _399
REMARK  172  A    between atoms: _399  and  _400
REMARK  173  A    between atoms: _399  and  _402
REMARK  174  A    between atoms: _402  and  _403
REMARK  175  A    between atoms: _408  and  _409
REMARK  176  A    between atoms: _411  and  _413
REMARK  177  A    between atoms: _413  and  _414
REMARK  178  A    between atoms: _413  and  _416
REMARK  179  A    between atoms: _419  and  _421
REMARK  180  A    between atoms: _421  and  _422
REMARK  181  A    between atoms: _421  and  _424
REMARK  182  A    between atoms: _424  and  _425
REMARK  183  A    between atoms: _428  and  _430
REMARK  184  A    between atoms: _430  and  _431
REMARK  185  A    between atoms: _430  and  _433
REMARK  186  A    between atoms: _436  and  _438
REMARK  187  A    between atoms: _438  and  _439
REMARK  188  A    between atoms: _438  and  _441
REMARK  189  A    between atoms: _441  and  _442
REMARK  190  A    between atoms: _445  and  _447
REMARK  191  A    between atoms: _447  and  _448
REMARK  192  A    between atoms: _447  and  _450
REMARK  193  A    between atoms: _450  and  _451
REMARK  194  A    between atoms: _454  and  _456
REMARK  195  A    between atoms: _456  and  _457
REMARK  196  A    between atoms: _456  and  _459
REMARK  197  A    between atoms: _459  and  _460
REMARK  198  A    between atoms: _460  and  _461
REMARK  199  A    between atoms: _461  and  _462
REMARK  200  A    between atoms: _462  and  _463
REMARK  201  A    between atoms: _467  and  _469
REMARK  202  A    between atoms: _469  and  _470
REMARK  203  A    between atoms: _469  and  _472
REMARK  204  A    between atoms: _472  and  _473
REMARK  205  A    between atoms: _483  and  _485
REMARK  206  A    between atoms: _485  and  _486
REMARK  207  A    between atoms: _485  and  _488
REMARK  208  A    between atoms: _488  and  _489
REMARK  209  A    between atoms: _489  and  _490
REMARK  210  A    between atoms: _493  and  _495
REMARK  211  A    between atoms: _495  and  _496
REMARK  212  A    between atoms: _495  and  _498
REMARK  213  A    between atoms: _498  and  _499
REMARK  214  A    between atoms: _501  and  _503
REMARK  215  A    between atoms: _503  and  _504
REMARK  216  A    between atoms: _503  and  _506
REMARK  217  A    between atoms: _506  and  _507
REMARK  218  A    between atoms: _513  and  _515
REMARK  219  A    between atoms: _515  and  _516
REMARK  220  A    between atoms: _515  and  _518
REMARK  221  A    between atoms: _518  and  _519
REMARK  222  A    between atoms: _522  and  _524
REMARK  223  A    between atoms: _524  and  _525
REMARK  224  A    between atoms: _524  and  _527
REMARK  225  A    between atoms: _530  and  _532
REMARK  226  A    between atoms: _532  and  _533
REMARK  227  A    between atoms: _535  and  _537
REMARK  228  A    between atoms: _537  and  _538
REMARK  229  A    between atoms: _537  and  _540
REMARK  230  A    between atoms: _540  and  _541
REMARK  231  A    between atoms: _544  and  _546
REMARK  232  A    between atoms: _546  and  _547
REMARK  233  A    between atoms: _546  and  _549
REMARK  234  A    between atoms: _549  and  _550
REMARK  235  A    between atoms: _550  and  _551
REMARK  236  A    between atoms: _551  and  _552
REMARK  237  A    between atoms: _552  and  _553
REMARK  238  A    between atoms: _557  and  _559
REMARK  239  A    between atoms: _559  and  _560
REMARK  240  A    between atoms: _559  and  _562
REMARK                            x       y       z     vdW  Elec       q    Type
REMARK                         _______ _______ _______ _____ _____    ______ ____
ROOT
ATOM      1  O   HOH     1      14.526 -14.454 -26.346  0.00  0.00    +0.000 OA
ENDROOT
TORSDOF 0
REMARK  Name = ../refined-set-2016/4o04/4o04_pocket.pdb
REMARK  240 active torsions:
REMARK  status: ('A' for Active; 'I' for Inactive)
REMARK    1  A    between atoms: _1  and  _3
REMARK    2  A    between atoms: _3  and  _4
REMARK    3  A    between atoms: _3  and  _6
REMARK    4  A    between atoms: _6  and  _7
REMARK    5  A    between atoms: _13  and  _15
REMARK    6  A    between atoms: _15  and  _16
REMARK    7  A    between atoms: _15  and  _18
REMARK    8  A    between atoms: _18  and  _19
REMARK    9  A    between atoms: _22  and  _24
REMARK   10  A    between atoms: _24  and  _25
REMARK   11  A    between atoms: _24  and  _27
REMARK   12  A    between atoms: _27  and  _28
REMARK   13  A    between atoms: _31  and  _33
REMARK   14  A    between atoms: _33  and  _34
REMARK   15  A    between atoms: _33  and  _36
REMARK   16  A    between atoms: _36  and  _37
REMARK   17  A    between atoms: _37  and  _38
REMARK   18  A    between atoms: _41  and  _43
REMARK   19  A    between atoms: _43  and  _44
REMARK   20  A    between atoms: _43  and  _46
REMARK   21  A    between atoms: _46  and  _47
REMARK   22  A    between atoms: _50  and  _52
REMARK   23  A    between atoms: _52  and  _53
REMARK   24  A    between atoms: _52  and  _55
REMARK   25  A    between atoms: _55  and  _56
REMARK   26  A    between atoms: _59  and  _61
REMARK   27  A    between atoms: _61  and  _62
REMARK   28  A    between atoms: _61  and  _64
REMARK   29  A    between atoms: _64  and  _65
REMARK   30  A    between atoms: _67  and  _69
REMARK   31  A    between atoms: _69  and  _70
REMARK   32  A    between atoms: _69  and  _72
REMARK   33  A    between atoms: _72  and  _73
REMARK   34  A    between atoms: _78  and  _80
REMARK   35  A    between atoms: _80  and  _81
REMARK   36  A    between atoms: _80  and  _83
REMARK   37  A    between atoms: _83  and  _84
REMARK   38  A    between atoms: _86  and  _88
REMARK   39  A    between atoms: _88  and  _89
REMARK   40  A    between atoms: _88  and  _91
REMARK   41  A    between atoms: _91  and  _92
REMARK   42  A    between atoms: _94  and  _96
REMARK   43  A    between atoms: _96  and  _97
REMARK   44  A    between atoms: _96  and  _99
REMARK   45  A    between atoms: _99  and  _100
REMARK   46  A    between atoms: _103  and  _105
REMARK   47  A    between atoms: _105  and  _106
REMARK   48  A    between atoms: _109  and  _111
REMARK   49  A    between atoms: _111  and  _112
REMARK   50  A    between atoms: _111  and  _114
REMARK   51  A    between atoms: _114  and  _115
REMARK   52  A    between atoms: _118  and  _120
REMARK   53  A    between atoms: _120  and  _121
REMARK   54  A    between atoms: _120  and  _123
REMARK   55  A    between atoms: _123  and  _124
REMARK   56  A    between atoms: _124  and  _125
REMARK   57  A    between atoms: _125  and  _126
REMARK   58  A    between atoms: _126  and  _127
REMARK   59  A    between atoms: _131  and  _133
REMARK   60  A    between atoms: _133  and  _134
REMARK   61  A    between atoms: _133  and  _136
REMARK   62  A    between atoms: _136  and  _137
REMARK   63  A    between atoms: _140  and  _142
REMARK   64  A    between atoms: _142  and  _143
REMARK   65  A    between atoms: _142  and  _145
REMARK   66  A    between atoms: _148  and  _150
REMARK   67  A    between atoms: _150  and  _151
REMARK   68  A    between atoms: _150  and  _153
REMARK   69  A    between atoms: _153  and  _154
REMARK   70  A    between atoms: _157  and  _159
REMARK   71  A    between atoms: _159  and  _160
REMARK   72  A    between atoms: _159  and  _162
REMARK   73  A    between atoms: _162  and  _163
REMARK   74  A    between atoms: _166  and  _168
REMARK   75  A    between atoms: _168  and  _169
REMARK   76  A    between atoms: _171  and  _173
REMARK   77  A    between atoms: _173  and  _174
REMARK   78  A    between atoms: _173  and  _176
REMARK   79  A    between atoms: _176  and  _177
REMARK   80  A    between atoms: _180  and  _182
REMARK   81  A    between atoms: _182  and  _183
REMARK   82  A    between atoms: _185  and  _187
REMARK   83  A    between atoms: _187  and  _188
REMARK   84  A    between atoms: _187  and  _190
REMARK   85  A    between atoms: _190  and  _191
REMARK   86  A    between atoms: _191  and  _192
REMARK   87  A    between atoms: _194  and  _196
REMARK   88  A    between atoms: _196  and  _197
REMARK   89  A    between atoms: _196  and  _199
REMARK   90  A    between atoms: _199  and  _200
REMARK   91  A    between atoms: _203  and  _205
REMARK   92  A    between atoms: _205  and  _206
REMARK   93  A    between atoms: _205  and  _208
REMARK   94  A    between atoms: _208  and  _209
REMARK   95  A    between atoms: _209  and  _210
REMARK   96  A    between atoms: _210  and  _211
REMARK   97  A    between atoms: _211  and  _212
REMARK   98  A    between atoms: _216  and  _218
REMARK   99  A    between atoms: _218  and  _219
REMARK  100  A    between atoms: _222  and  _224
REMARK  101  A    between atoms: _224  and  _225
REMARK  102  A    between atoms: _224  and  _227
REMARK  103  A    between atoms: _227  and  _228
REMARK  104  A    between atoms: _231  and  _233
REMARK  105  A    between atoms: _233  and  _234
REMARK  106  A    between atoms: _233  and  _236
REMARK  107  A    between atoms: _236  and  _237
REMARK  108  A    between atoms: _240  and  _242
REMARK  109  A    between atoms: _242  and  _243
REMARK  110  A    between atoms: _242  and  _245
REMARK  111  A    between atoms: _245  and  _246
REMARK  112  A    between atoms: _249  and  _251
REMARK  113  A    between atoms: _251  and  _252
REMARK  114  A    between atoms: _251  and  _254
REMARK  115  A    between atoms: _254  and  _255
REMARK  116  A    between atoms: _260  and  _262
REMARK  117  A    between atoms: _262  and  _263
REMARK  118  A    between atoms: _262  and  _265
REMARK  119  A    between atoms: _265  and  _266
REMARK  120  A    between atoms: _271  and  _273
REMARK  121  A    between atoms: _273  and  _274
REMARK  122  A    between atoms: _273  and  _276
REMARK  123  A    between atoms: _276  and  _277
REMARK  124  A    between atoms: _280  and  _282
REMARK  125  A    between atoms: _282  and  _283
REMARK  126  A    between atoms: _285  and  _287
REMARK  127  A    between atoms: _287  and  _288
REMARK  128  A    between atoms: _287  and  _290
REMARK  129  A    between atoms: _290  and  _291
REMARK  130  A    between atoms: _294  and  _296
REMARK  131  A    between atoms: _296  and  _297
REMARK  132  A    between atoms: _296  and  _299
REMARK  133  A    between atoms: _299  and  _300
REMARK  134  A    between atoms: _303  and  _305
REMARK  135  A    between atoms: _305  and  _306
REMARK  136  A    between atoms: _309  and  _311
REMARK  137  A    between atoms: _311  and  _312
REMARK  138  A    between atoms: _311  and  _314
REMARK  139  A    between atoms: _314  and  _315
REMARK  140  A    between atoms: _315  and  _316
REMARK  141  A    between atoms: _316  and  _317
REMARK  142  A    between atoms: _317  and  _318
REMARK  143  A    between atoms: _322  and  _324
REMARK  144  A    between atoms: _324  and  _325
REMARK  145  A    between atoms: _327  and  _329
REMARK  146  A    between atoms: _329  and  _330
REMARK  147  A    between atoms: _329  and  _332
REMARK  148  A    between atoms: _332  and  _333
REMARK  149  A    between atoms: _336  and  _338
REMARK  150  A    between atoms: _338  and  _339
REMARK  151  A    between atoms: _341  and  _343
REMARK  152  A    between atoms: _343  and  _344
REMARK  153  A    between atoms: _343  and  _346
REMARK  154  A    between atoms: _346  and  _347
REMARK  155  A    between atoms: _353  and  _355
REMARK  156  A    between atoms: _355  and  _356
REMARK  157  A    between atoms: _358  and  _360
REMARK  158  A    between atoms: _360  and  _361
REMARK  159  A    between atoms: _360  and  _363
REMARK  160  A    between atoms: _366  and  _368
REMARK  161  A    between atoms: _368  and  _369
REMARK  162  A    between atoms: _371  and  _373
REMARK  163  A    between atoms: _373  and  _374
REMARK  164  A    between atoms: _373  and  _376
REMARK  165  A    between atoms: _376  and  _377
REMARK  166  A    between atoms: _383  and  _385
REMARK  167  A    between atoms: _385  and  _386
REMARK  168  A    between atoms: _385  and  _388
REMARK  169  A    between atoms: _388  and  _389
REMARK  170  A    between atoms: _394  and  _395
REMARK  171  A    between atoms: _397  and  _399
REMARK  172  A    between atoms: _399  and  _400
REMARK  173  A    between atoms: _399  and  _402
REMARK  174  A    between atoms: _402  and  _403
REMARK  175  A    between atoms: _408  and  _409
REMARK  176  A    between atoms: _411  and  _413
REMARK  177  A    between atoms: _413  and  _414
REMARK  178  A    between atoms: _413  and  _416
REMARK  179  A    between atoms: _419  and  _421
REMARK  180  A    between atoms: _421  and  _422
REMARK  181  A    between atoms: _421  and  _424
REMARK  182  A    between atoms: _424  and  _425
REMARK  183  A    between atoms: _428  and  _430
REMARK  184  A    between atoms: _430  and  _431
REMARK  185  A    between atoms: _430  and  _433
REMARK  186  A    between atoms: _436  and  _438
REMARK  187  A    between atoms: _438  and  _439
REMARK  188  A    between atoms: _438  and  _441
REMARK  189  A    between atoms: _441  and  _442
REMARK  190  A    between atoms: _445  and  _447
REMARK  191  A    between atoms: _447  and  _448
REMARK  192  A    between atoms: _447  and  _450
REMARK  193  A    between atoms: _450  and  _451
REMARK  194  A    between atoms: _454  and  _456
REMARK  195  A    between atoms: _456  and  _457
REMARK  196  A    between atoms: _456  and  _459
REMARK  197  A    between atoms: _459  and  _460
REMARK  198  A    between atoms: _460  and  _461
REMARK  199  A    between atoms: _461  and  _462
REMARK  200  A    between atoms: _462  and  _463
REMARK  201  A    between atoms: _467  and  _469
REMARK  202  A    between atoms: _469  and  _470
REMARK  203  A    between atoms: _469  and  _472
REMARK  204  A    between atoms: _472  and  _473
REMARK  205  A    between atoms: _483  and  _485
REMARK  206  A    between atoms: _485  and  _486
REMARK  207  A    between atoms: _485  and  _488
REMARK  208  A    between atoms: _488  and  _489
REMARK  209  A    between atoms: _489  and  _490
REMARK  210  A    between atoms: _493  and  _495
REMARK  211  A    between atoms: _495  and  _496
REMARK  212  A    between atoms: _495  and  _498
REMARK  213  A    between atoms: _498  and  _499
REMARK  214  A    between atoms: _501  and  _503
REMARK  215  A    between atoms: _503  and  _504
REMARK  216  A    between atoms: _503  and  _506
REMARK  217  A    between atoms: _506  and  _507
REMARK  218  A    between atoms: _513  and  _515
REMARK  219  A    between atoms: _515  and  _516
REMARK  220  A    between atoms: _515  and  _518
REMARK  221  A    between atoms: _518  and  _519
REMARK  222  A    between atoms: _522  and  _524
REMARK  223  A    between atoms: _524  and  _525
REMARK  224  A    between atoms: _524  and  _527
REMARK  225  A    between atoms: _530  and  _532
REMARK  226  A    between atoms: _532  and  _533
REMARK  227  A    between atoms: _535  and  _537
REMARK  228  A    between atoms: _537  and  _538
REMARK  229  A    between atoms: _537  and  _540
REMARK  230  A    between atoms: _540  and  _541
REMARK  231  A    between atoms: _544  and  _546
REMARK  232  A    between atoms: _546  and  _547
REMARK  233  A    between atoms: _546  and  _549
REMARK  234  A    between atoms: _549  and  _550
REMARK  235  A    between atoms: _550  and  _551
REMARK  236  A    between atoms: _551  and  _552
REMARK  237  A    between atoms: _552  and  _553
REMARK  238  A    between atoms: _557  and  _559
REMARK  239  A    between atoms: _559  and  _560
REMARK  240  A    between atoms: _559  and  _562
REMARK                            x       y       z     vdW  Elec       q    Type
REMARK                         _______ _______ _______ _____ _____    ______ ____
ROOT
ATOM      1  O   HOH     1      -0.522  -6.521 -26.987  0.00  0.00    +0.000 OA
ENDROOT
TORSDOF 0
REMARK  Name = ../refined-set-2016/4o04/4o04_pocket.pdb
REMARK  240 active torsions:
REMARK  status: ('A' for Active; 'I' for Inactive)
REMARK    1  A    between atoms: _1  and  _3
REMARK    2  A    between atoms: _3  and  _4
REMARK    3  A    between atoms: _3  and  _6
REMARK    4  A    between atoms: _6  and  _7
REMARK    5  A    between atoms: _13  and  _15
REMARK    6  A    between atoms: _15  and  _16
REMARK    7  A    between atoms: _15  and  _18
REMARK    8  A    between atoms: _18  and  _19
REMARK    9  A    between atoms: _22  and  _24
REMARK   10  A    between atoms: _24  and  _25
REMARK   11  A    between atoms: _24  and  _27
REMARK   12  A    between atoms: _27  and  _28
REMARK   13  A    between atoms: _31  and  _33
REMARK   14  A    between atoms: _33  and  _34
REMARK   15  A    between atoms: _33  and  _36
REMARK   16  A    between atoms: _36  and  _37
REMARK   17  A    between atoms: _37  and  _38
REMARK   18  A    between atoms: _41  and  _43
REMARK   19  A    between atoms: _43  and  _44
REMARK   20  A    between atoms: _43  and  _46
REMARK   21  A    between atoms: _46  and  _47
REMARK   22  A    between atoms: _50  and  _52
REMARK   23  A    between atoms: _52  and  _53
REMARK   24  A    between atoms: _52  and  _55
REMARK   25  A    between atoms: _55  and  _56
REMARK   26  A    between atoms: _59  and  _61
REMARK   27  A    between atoms: _61  and  _62
REMARK   28  A    between atoms: _61  and  _64
REMARK   29  A    between atoms: _64  and  _65
REMARK   30  A    between atoms: _67  and  _69
REMARK   31  A    between atoms: _69  and  _70
REMARK   32  A    between atoms: _69  and  _72
REMARK   33  A    between atoms: _72  and  _73
REMARK   34  A    between atoms: _78  and  _80
REMARK   35  A    between atoms: _80  and  _81
REMARK   36  A    between atoms: _80  and  _83
REMARK   37  A    between atoms: _83  and  _84
REMARK   38  A    between atoms: _86  and  _88
REMARK   39  A    between atoms: _88  and  _89
REMARK   40  A    between atoms: _88  and  _91
REMARK   41  A    between atoms: _91  and  _92
REMARK   42  A    between atoms: _94  and  _96
REMARK   43  A    between atoms: _96  and  _97
REMARK   44  A    between atoms: _96  and  _99
REMARK   45  A    between atoms: _99  and  _100
REMARK   46  A    between atoms: _103  and  _105
REMARK   47  A    between atoms: _105  and  _106
REMARK   48  A    between atoms: _109  and  _111
REMARK   49  A    between atoms: _111  and  _112
REMARK   50  A    between atoms: _111  and  _114
REMARK   51  A    between atoms: _114  and  _115
REMARK   52  A    between atoms: _118  and  _120
REMARK   53  A    between atoms: _120  and  _121
REMARK   54  A    between atoms: _120  and  _123
REMARK   55  A    between atoms: _123  and  _124
REMARK   56  A    between atoms: _124  and  _125
REMARK   57  A    between atoms: _125  and  _126
REMARK   58  A    between atoms: _126  and  _127
REMARK   59  A    between atoms: _131  and  _133
REMARK   60  A    between atoms: _133  and  _134
REMARK   61  A    between atoms: _133  and  _136
REMARK   62  A    between atoms: _136  and  _137
REMARK   63  A    between atoms: _140  and  _142
REMARK   64  A    between atoms: _142  and  _143
REMARK   65  A    between atoms: _142  and  _145
REMARK   66  A    between atoms: _148  and  _150
REMARK   67  A    between atoms: _150  and  _151
REMARK   68  A    between atoms: _150  and  _153
REMARK   69  A    between atoms: _153  and  _154
REMARK   70  A    between atoms: _157  and  _159
REMARK   71  A    between atoms: _159  and  _160
REMARK   72  A    between atoms: _159  and  _162
REMARK   73  A    between atoms: _162  and  _163
REMARK   74  A    between atoms: _166  and  _168
REMARK   75  A    between atoms: _168  and  _169
REMARK   76  A    between atoms: _171  and  _173
REMARK   77  A    between atoms: _173  and  _174
REMARK   78  A    between atoms: _173  and  _176
REMARK   79  A    between atoms: _176  and  _177
REMARK   80  A    between atoms: _180  and  _182
REMARK   81  A    between atoms: _182  and  _183
REMARK   82  A    between atoms: _185  and  _187
REMARK   83  A    between atoms: _187  and  _188
REMARK   84  A    between atoms: _187  and  _190
REMARK   85  A    between atoms: _190  and  _191
REMARK   86  A    between atoms: _191  and  _192
REMARK   87  A    between atoms: _194  and  _196
REMARK   88  A    between atoms: _196  and  _197
REMARK   89  A    between atoms: _196  and  _199
REMARK   90  A    between atoms: _199  and  _200
REMARK   91  A    between atoms: _203  and  _205
REMARK   92  A    between atoms: _205  and  _206
REMARK   93  A    between atoms: _205  and  _208
REMARK   94  A    between atoms: _208  and  _209
REMARK   95  A    between atoms: _209  and  _210
REMARK   96  A    between atoms: _210  and  _211
REMARK   97  A    between atoms: _211  and  _212
REMARK   98  A    between atoms: _216  and  _218
REMARK   99  A    between atoms: _218  and  _219
REMARK  100  A    between atoms: _222  and  _224
REMARK  101  A    between atoms: _224  and  _225
REMARK  102  A    between atoms: _224  and  _227
REMARK  103  A    between atoms: _227  and  _228
REMARK  104  A    between atoms: _231  and  _233
REMARK  105  A    between atoms: _233  and  _234
REMARK  106  A    between atoms: _233  and  _236
REMARK  107  A    between atoms: _236  and  _237
REMARK  108  A    between atoms: _240  and  _242
REMARK  109  A    between atoms: _242  and  _243
REMARK  110  A    between atoms: _242  and  _245
REMARK  111  A    between atoms: _245  and  _246
REMARK  112  A    between atoms: _249  and  _251
REMARK  113  A    between atoms: _251  and  _252
REMARK  114  A    between atoms: _251  and  _254
REMARK  115  A    between atoms: _254  and  _255
REMARK  116  A    between atoms: _260  and  _262
REMARK  117  A    between atoms: _262  and  _263
REMARK  118  A    between atoms: _262  and  _265
REMARK  119  A    between atoms: _265  and  _266
REMARK  120  A    between atoms: _271  and  _273
REMARK  121  A    between atoms: _273  and  _274
REMARK  122  A    between atoms: _273  and  _276
REMARK  123  A    between atoms: _276  and  _277
REMARK  124  A    between atoms: _280  and  _282
REMARK  125  A    between atoms: _282  and  _283
REMARK  126  A    between atoms: _285  and  _287
REMARK  127  A    between atoms: _287  and  _288
REMARK  128  A    between atoms: _287  and  _290
REMARK  129  A    between atoms: _290  and  _291
REMARK  130  A    between atoms: _294  and  _296
REMARK  131  A    between atoms: _296  and  _297
REMARK  132  A    between atoms: _296  and  _299
REMARK  133  A    between atoms: _299  and  _300
REMARK  134  A    between atoms: _303  and  _305
REMARK  135  A    between atoms: _305  and  _306
REMARK  136  A    between atoms: _309  and  _311
REMARK  137  A    between atoms: _311  and  _312
REMARK  138  A    between atoms: _311  and  _314
REMARK  139  A    between atoms: _314  and  _315
REMARK  140  A    between atoms: _315  and  _316
REMARK  141  A    between atoms: _316  and  _317
REMARK  142  A    between atoms: _317  and  _318
REMARK  143  A    between atoms: _322  and  _324
REMARK  144  A    between atoms: _324  and  _325
REMARK  145  A    between atoms: _327  and  _329
REMARK  146  A    between atoms: _329  and  _330
REMARK  147  A    between atoms: _329  and  _332
REMARK  148  A    between atoms: _332  and  _333
REMARK  149  A    between atoms: _336  and  _338
REMARK  150  A    between atoms: _338  and  _339
REMARK  151  A    between atoms: _341  and  _343
REMARK  152  A    between atoms: _343  and  _344
REMARK  153  A    between atoms: _343  and  _346
REMARK  154  A    between atoms: _346  and  _347
REMARK  155  A    between atoms: _353  and  _355
REMARK  156  A    between atoms: _355  and  _356
REMARK  157  A    between atoms: _358  and  _360
REMARK  158  A    between atoms: _360  and  _361
REMARK  159  A    between atoms: _360  and  _363
REMARK  160  A    between atoms: _366  and  _368
REMARK  161  A    between atoms: _368  and  _369
REMARK  162  A    between atoms: _371  and  _373
REMARK  163  A    between atoms: _373  and  _374
REMARK  164  A    between atoms: _373  and  _376
REMARK  165  A    between atoms: _376  and  _377
REMARK  166  A    between atoms: _383  and  _385
REMARK  167  A    between atoms: _385  and  _386
REMARK  168  A    between atoms: _385  and  _388
REMARK  169  A    between atoms: _388  and  _389
REMARK  170  A    between atoms: _394  and  _395
REMARK  171  A    between atoms: _397  and  _399
REMARK  172  A    between atoms: _399  and  _400
REMARK  173  A    between atoms: _399  and  _402
REMARK  174  A    between atoms: _402  and  _403
REMARK  175  A    between atoms: _408  and  _409
REMARK  176  A    between atoms: _411  and  _413
REMARK  177  A    between atoms: _413  and  _414
REMARK  178  A    between atoms: _413  and  _416
REMARK  179  A    between atoms: _419  and  _421
REMARK  180  A    between atoms: _421  and  _422
REMARK  181  A    between atoms: _421  and  _424
REMARK  182  A    between atoms: _424  and  _425
REMARK  183  A    between atoms: _428  and  _430
REMARK  184  A    between atoms: _430  and  _431
REMARK  185  A    between atoms: _430  and  _433
REMARK  186  A    between atoms: _436  and  _438
REMARK  187  A    between atoms: _438  and  _439
REMARK  188  A    between atoms: _438  and  _441
REMARK  189  A    between atoms: _441  and  _442
REMARK  190  A    between atoms: _445  and  _447
REMARK  191  A    between atoms: _447  and  _448
REMARK  192  A    between atoms: _447  and  _450
REMARK  193  A    between atoms: _450  and  _451
REMARK  194  A    between atoms: _454  and  _456
REMARK  195  A    between atoms: _456  and  _457
REMARK  196  A    between atoms: _456  and  _459
REMARK  197  A    between atoms: _459  and  _460
REMARK  198  A    between atoms: _460  and  _461
REMARK  199  A    between atoms: _461  and  _462
REMARK  200  A    between atoms: _462  and  _463
REMARK  201  A    between atoms: _467  and  _469
REMARK  202  A    between atoms: _469  and  _470
REMARK  203  A    between atoms: _469  and  _472
REMARK  204  A    between atoms: _472  and  _473
REMARK  205  A    between atoms: _483  and  _485
REMARK  206  A    between atoms: _485  and  _486
REMARK  207  A    between atoms: _485  and  _488
REMARK  208  A    between atoms: _488  and  _489
REMARK  209  A    between atoms: _489  and  _490
REMARK  210  A    between atoms: _493  and  _495
REMARK  211  A    between atoms: _495  and  _496
REMARK  212  A    between atoms: _495  and  _498
REMARK  213  A    between atoms: _498  and  _499
REMARK  214  A    between atoms: _501  and  _503
REMARK  215  A    between atoms: _503  and  _504
REMARK  216  A    between atoms: _503  and  _506
REMARK  217  A    between atoms: _506  and  _507
REMARK  218  A    between atoms: _513  and  _515
REMARK  219  A    between atoms: _515  and  _516
REMARK  220  A    between atoms: _515  and  _518
REMARK  221  A    between atoms: _518  and  _519
REMARK  222  A    between atoms: _522  and  _524
REMARK  223  A    between atoms: _524  and  _525
REMARK  224  A    between atoms: _524  and  _527
REMARK  225  A    between atoms: _530  and  _532
REMARK  226  A    between atoms: _532  and  _533
REMARK  227  A    between atoms: _535  and  _537
REMARK  228  A    between atoms: _537  and  _538
REMARK  229  A    between atoms: _537  and  _540
REMARK  230  A    between atoms: _540  and  _541
REMARK  231  A    between atoms: _544  and  _546
REMARK  232  A    between atoms: _546  and  _547
REMARK  233  A    between atoms: _546  and  _549
REMARK  234  A    between atoms: _549  and  _550
REMARK  235  A    between atoms: _550  and  _551
REMARK  236  A    between atoms: _551  and  _552
REMARK  237  A    between atoms: _552  and  _553
REMARK  238  A    between atoms: _557  and  _559
REMARK  239  A    between atoms: _559  and  _560
REMARK  240  A    between atoms: _559  and  _562
REMARK                            x       y       z     vdW  Elec       q    Type
REMARK                         _______ _______ _______ _____ _____    ______ ____
ROOT
ATOM      1  O   HOH     1      11.548 -14.487 -25.567  0.00  0.00    +0.000 OA
ENDROOT
TORSDOF 0
REMARK  Name = ../refined-set-2016/4o04/4o04_pocket.pdb
REMARK  240 active torsions:
REMARK  status: ('A' for Active; 'I' for Inactive)
REMARK    1  A    between atoms: _1  and  _3
REMARK    2  A    between atoms: _3  and  _4
REMARK    3  A    between atoms: _3  and  _6
REMARK    4  A    between atoms: _6  and  _7
REMARK    5  A    between atoms: _13  and  _15
REMARK    6  A    between atoms: _15  and  _16
REMARK    7  A    between atoms: _15  and  _18
REMARK    8  A    between atoms: _18  and  _19
REMARK    9  A    between atoms: _22  and  _24
REMARK   10  A    between atoms: _24  and  _25
REMARK   11  A    between atoms: _24  and  _27
REMARK   12  A    between atoms: _27  and  _28
REMARK   13  A    between atoms: _31  and  _33
REMARK   14  A    between atoms: _33  and  _34
REMARK   15  A    between atoms: _33  and  _36
REMARK   16  A    between atoms: _36  and  _37
REMARK   17  A    between atoms: _37  and  _38
REMARK   18  A    between atoms: _41  and  _43
REMARK   19  A    between atoms: _43  and  _44
REMARK   20  A    between atoms: _43  and  _46
REMARK   21  A    between atoms: _46  and  _47
REMARK   22  A    between atoms: _50  and  _52
REMARK   23  A    between atoms: _52  and  _53
REMARK   24  A    between atoms: _52  and  _55
REMARK   25  A    between atoms: _55  and  _56
REMARK   26  A    between atoms: _59  and  _61
REMARK   27  A    between atoms: _61  and  _62
REMARK   28  A    between atoms: _61  and  _64
REMARK   29  A    between atoms: _64  and  _65
REMARK   30  A    between atoms: _67  and  _69
REMARK   31  A    between atoms: _69  and  _70
REMARK   32  A    between atoms: _69  and  _72
REMARK   33  A    between atoms: _72  and  _73
REMARK   34  A    between atoms: _78  and  _80
REMARK   35  A    between atoms: _80  and  _81
REMARK   36  A    between atoms: _80  and  _83
REMARK   37  A    between atoms: _83  and  _84
REMARK   38  A    between atoms: _86  and  _88
REMARK   39  A    between atoms: _88  and  _89
REMARK   40  A    between atoms: _88  and  _91
REMARK   41  A    between atoms: _91  and  _92
REMARK   42  A    between atoms: _94  and  _96
REMARK   43  A    between atoms: _96  and  _97
REMARK   44  A    between atoms: _96  and  _99
REMARK   45  A    between atoms: _99  and  _100
REMARK   46  A    between atoms: _103  and  _105
REMARK   47  A    between atoms: _105  and  _106
REMARK   48  A    between atoms: _109  and  _111
REMARK   49  A    between atoms: _111  and  _112
REMARK   50  A    between atoms: _111  and  _114
REMARK   51  A    between atoms: _114  and  _115
REMARK   52  A    between atoms: _118  and  _120
REMARK   53  A    between atoms: _120  and  _121
REMARK   54  A    between atoms: _120  and  _123
REMARK   55  A    between atoms: _123  and  _124
REMARK   56  A    between atoms: _124  and  _125
REMARK   57  A    between atoms: _125  and  _126
REMARK   58  A    between atoms: _126  and  _127
REMARK   59  A    between atoms: _131  and  _133
REMARK   60  A    between atoms: _133  and  _134
REMARK   61  A    between atoms: _133  and  _136
REMARK   62  A    between atoms: _136  and  _137
REMARK   63  A    between atoms: _140  and  _142
REMARK   64  A    between atoms: _142  and  _143
REMARK   65  A    between atoms: _142  and  _145
REMARK   66  A    between atoms: _148  and  _150
REMARK   67  A    between atoms: _150  and  _151
REMARK   68  A    between atoms: _150  and  _153
REMARK   69  A    between atoms: _153  and  _154
REMARK   70  A    between atoms: _157  and  _159
REMARK   71  A    between atoms: _159  and  _160
REMARK   72  A    between atoms: _159  and  _162
REMARK   73  A    between atoms: _162  and  _163
REMARK   74  A    between atoms: _166  and  _168
REMARK   75  A    between atoms: _168  and  _169
REMARK   76  A    between atoms: _171  and  _173
REMARK   77  A    between atoms: _173  and  _174
REMARK   78  A    between atoms: _173  and  _176
REMARK   79  A    between atoms: _176  and  _177
REMARK   80  A    between atoms: _180  and  _182
REMARK   81  A    between atoms: _182  and  _183
REMARK   82  A    between atoms: _185  and  _187
REMARK   83  A    between atoms: _187  and  _188
REMARK   84  A    between atoms: _187  and  _190
REMARK   85  A    between atoms: _190  and  _191
REMARK   86  A    between atoms: _191  and  _192
REMARK   87  A    between atoms: _194  and  _196
REMARK   88  A    between atoms: _196  and  _197
REMARK   89  A    between atoms: _196  and  _199
REMARK   90  A    between atoms: _199  and  _200
REMARK   91  A    between atoms: _203  and  _205
REMARK   92  A    between atoms: _205  and  _206
REMARK   93  A    between atoms: _205  and  _208
REMARK   94  A    between atoms: _208  and  _209
REMARK   95  A    between atoms: _209  and  _210
REMARK   96  A    between atoms: _210  and  _211
REMARK   97  A    between atoms: _211  and  _212
REMARK   98  A    between atoms: _216  and  _218
REMARK   99  A    between atoms: _218  and  _219
REMARK  100  A    between atoms: _222  and  _224
REMARK  101  A    between atoms: _224  and  _225
REMARK  102  A    between atoms: _224  and  _227
REMARK  103  A    between atoms: _227  and  _228
REMARK  104  A    between atoms: _231  and  _233
REMARK  105  A    between atoms: _233  and  _234
REMARK  106  A    between atoms: _233  and  _236
REMARK  107  A    between atoms: _236  and  _237
REMARK  108  A    between atoms: _240  and  _242
REMARK  109  A    between atoms: _242  and  _243
REMARK  110  A    between atoms: _242  and  _245
REMARK  111  A    between atoms: _245  and  _246
REMARK  112  A    between atoms: _249  and  _251
REMARK  113  A    between atoms: _251  and  _252
REMARK  114  A    between atoms: _251  and  _254
REMARK  115  A    between atoms: _254  and  _255
REMARK  116  A    between atoms: _260  and  _262
REMARK  117  A    between atoms: _262  and  _263
REMARK  118  A    between atoms: _262  and  _265
REMARK  119  A    between atoms: _265  and  _266
REMARK  120  A    between atoms: _271  and  _273
REMARK  121  A    between atoms: _273  and  _274
REMARK  122  A    between atoms: _273  and  _276
REMARK  123  A    between atoms: _276  and  _277
REMARK  124  A    between atoms: _280  and  _282
REMARK  125  A    between atoms: _282  and  _283
REMARK  126  A    between atoms: _285  and  _287
REMARK  127  A    between atoms: _287  and  _288
REMARK  128  A    between atoms: _287  and  _290
REMARK  129  A    between atoms: _290  and  _291
REMARK  130  A    between atoms: _294  and  _296
REMARK  131  A    between atoms: _296  and  _297
REMARK  132  A    between atoms: _296  and  _299
REMARK  133  A    between atoms: _299  and  _300
REMARK  134  A    between atoms: _303  and  _305
REMARK  135  A    between atoms: _305  and  _306
REMARK  136  A    between atoms: _309  and  _311
REMARK  137  A    between atoms: _311  and  _312
REMARK  138  A    between atoms: _311  and  _314
REMARK  139  A    between atoms: _314  and  _315
REMARK  140  A    between atoms: _315  and  _316
REMARK  141  A    between atoms: _316  and  _317
REMARK  142  A    between atoms: _317  and  _318
REMARK  143  A    between atoms: _322  and  _324
REMARK  144  A    between atoms: _324  and  _325
REMARK  145  A    between atoms: _327  and  _329
REMARK  146  A    between atoms: _329  and  _330
REMARK  147  A    between atoms: _329  and  _332
REMARK  148  A    between atoms: _332  and  _333
REMARK  149  A    between atoms: _336  and  _338
REMARK  150  A    between atoms: _338  and  _339
REMARK  151  A    between atoms: _341  and  _343
REMARK  152  A    between atoms: _343  and  _344
REMARK  153  A    between atoms: _343  and  _346
REMARK  154  A    between atoms: _346  and  _347
REMARK  155  A    between atoms: _353  and  _355
REMARK  156  A    between atoms: _355  and  _356
REMARK  157  A    between atoms: _358  and  _360
REMARK  158  A    between atoms: _360  and  _361
REMARK  159  A    between atoms: _360  and  _363
REMARK  160  A    between atoms: _366  and  _368
REMARK  161  A    between atoms: _368  and  _369
REMARK  162  A    between atoms: _371  and  _373
REMARK  163  A    between atoms: _373  and  _374
REMARK  164  A    between atoms: _373  and  _376
REMARK  165  A    between atoms: _376  and  _377
REMARK  166  A    between atoms: _383  and  _385
REMARK  167  A    between atoms: _385  and  _386
REMARK  168  A    between atoms: _385  and  _388
REMARK  169  A    between atoms: _388  and  _389
REMARK  170  A    between atoms: _394  and  _395
REMARK  171  A    between atoms: _397  and  _399
REMARK  172  A    between atoms: _399  and  _400
REMARK  173  A    between atoms: _399  and  _402
REMARK  174  A    between atoms: _402  and  _403
REMARK  175  A    between atoms: _408  and  _409
REMARK  176  A    between atoms: _411  and  _413
REMARK  177  A    between atoms: _413  and  _414
REMARK  178  A    between atoms: _413  and  _416
REMARK  179  A    between atoms: _419  and  _421
REMARK  180  A    between atoms: _421  and  _422
REMARK  181  A    between atoms: _421  and  _424
REMARK  182  A    between atoms: _424  and  _425
REMARK  183  A    between atoms: _428  and  _430
REMARK  184  A    between atoms: _430  and  _431
REMARK  185  A    between atoms: _430  and  _433
REMARK  186  A    between atoms: _436  and  _438
REMARK  187  A    between atoms: _438  and  _439
REMARK  188  A    between atoms: _438  and  _441
REMARK  189  A    between atoms: _441  and  _442
REMARK  190  A    between atoms: _445  and  _447
REMARK  191  A    between atoms: _447  and  _448
REMARK  192  A    between atoms: _447  and  _450
REMARK  193  A    between atoms: _450  and  _451
REMARK  194  A    between atoms: _454  and  _456
REMARK  195  A    between atoms: _456  and  _457
REMARK  196  A    between atoms: _456  and  _459
REMARK  197  A    between atoms: _459  and  _460
REMARK  198  A    between atoms: _460  and  _461
REMARK  199  A    between atoms: _461  and  _462
REMARK  200  A    between atoms: _462  and  _463
REMARK  201  A    between atoms: _467  and  _469
REMARK  202  A    between atoms: _469  and  _470
REMARK  203  A    between atoms: _469  and  _472
REMARK  204  A    between atoms: _472  and  _473
REMARK  205  A    between atoms: _483  and  _485
REMARK  206  A    between atoms: _485  and  _486
REMARK  207  A    between atoms: _485  and  _488
REMARK  208  A    between atoms: _488  and  _489
REMARK  209  A    between atoms: _489  and  _490
REMARK  210  A    between atoms: _493  and  _495
REMARK  211  A    between atoms: _495  and  _496
REMARK  212  A    between atoms: _495  and  _498
REMARK  213  A    between atoms: _498  and  _499
REMARK  214  A    between atoms: _501  and  _503
REMARK  215  A    between atoms: _503  and  _504
REMARK  216  A    between atoms: _503  and  _506
REMARK  217  A    between atoms: _506  and  _507
REMARK  218  A    between atoms: _513  and  _515
REMARK  219  A    between atoms: _515  and  _516
REMARK  220  A    between atoms: _515  and  _518
REMARK  221  A    between atoms: _518  and  _519
REMARK  222  A    between atoms: _522  and  _524
REMARK  223  A    between atoms: _524  and  _525
REMARK  224  A    between atoms: _524  and  _527
REMARK  225  A    between atoms: _530  and  _532
REMARK  226  A    between atoms: _532  and  _533
REMARK  227  A    between atoms: _535  and  _537
REMARK  228  A    between atoms: _537  and  _538
REMARK  229  A    between atoms: _537  and  _540
REMARK  230  A    between atoms: _540  and  _541
REMARK  231  A    between atoms: _544  and  _546
REMARK  232  A    between atoms: _546  and  _547
REMARK  233  A    between atoms: _546  and  _549
REMARK  234  A    between atoms: _549  and  _550
REMARK  235  A    between atoms: _550  and  _551
REMARK  236  A    between atoms: _551  and  _552
REMARK  237  A    between atoms: _552  and  _553
REMARK  238  A    between atoms: _557  and  _559
REMARK  239  A    between atoms: _559  and  _560
REMARK  240  A    between atoms: _559  and  _562
REMARK                            x       y       z     vdW  Elec       q    Type
REMARK                         _______ _______ _______ _____ _____    ______ ____
ROOT
ATOM      1  O   HOH     1       0.328 -13.169 -20.997  0.00  0.00    +0.000 OA
ENDROOT
TORSDOF 0
REMARK  Name = ../refined-set-2016/4o04/4o04_pocket.pdb
REMARK  240 active torsions:
REMARK  status: ('A' for Active; 'I' for Inactive)
REMARK    1  A    between atoms: _1  and  _3
REMARK    2  A    between atoms: _3  and  _4
REMARK    3  A    between atoms: _3  and  _6
REMARK    4  A    between atoms: _6  and  _7
REMARK    5  A    between atoms: _13  and  _15
REMARK    6  A    between atoms: _15  and  _16
REMARK    7  A    between atoms: _15  and  _18
REMARK    8  A    between atoms: _18  and  _19
REMARK    9  A    between atoms: _22  and  _24
REMARK   10  A    between atoms: _24  and  _25
REMARK   11  A    between atoms: _24  and  _27
REMARK   12  A    between atoms: _27  and  _28
REMARK   13  A    between atoms: _31  and  _33
REMARK   14  A    between atoms: _33  and  _34
REMARK   15  A    between atoms: _33  and  _36
REMARK   16  A    between atoms: _36  and  _37
REMARK   17  A    between atoms: _37  and  _38
REMARK   18  A    between atoms: _41  and  _43
REMARK   19  A    between atoms: _43  and  _44
REMARK   20  A    between atoms: _43  and  _46
REMARK   21  A    between atoms: _46  and  _47
REMARK   22  A    between atoms: _50  and  _52
REMARK   23  A    between atoms: _52  and  _53
REMARK   24  A    between atoms: _52  and  _55
REMARK   25  A    between atoms: _55  and  _56
REMARK   26  A    between atoms: _59  and  _61
REMARK   27  A    between atoms: _61  and  _62
REMARK   28  A    between atoms: _61  and  _64
REMARK   29  A    between atoms: _64  and  _65
REMARK   30  A    between atoms: _67  and  _69
REMARK   31  A    between atoms: _69  and  _70
REMARK   32  A    between atoms: _69  and  _72
REMARK   33  A    between atoms: _72  and  _73
REMARK   34  A    between atoms: _78  and  _80
REMARK   35  A    between atoms: _80  and  _81
REMARK   36  A    between atoms: _80  and  _83
REMARK   37  A    between atoms: _83  and  _84
REMARK   38  A    between atoms: _86  and  _88
REMARK   39  A    between atoms: _88  and  _89
REMARK   40  A    between atoms: _88  and  _91
REMARK   41  A    between atoms: _91  and  _92
REMARK   42  A    between atoms: _94  and  _96
REMARK   43  A    between atoms: _96  and  _97
REMARK   44  A    between atoms: _96  and  _99
REMARK   45  A    between atoms: _99  and  _100
REMARK   46  A    between atoms: _103  and  _105
REMARK   47  A    between atoms: _105  and  _106
REMARK   48  A    between atoms: _109  and  _111
REMARK   49  A    between atoms: _111  and  _112
REMARK   50  A    between atoms: _111  and  _114
REMARK   51  A    between atoms: _114  and  _115
REMARK   52  A    between atoms: _118  and  _120
REMARK   53  A    between atoms: _120  and  _121
REMARK   54  A    between atoms: _120  and  _123
REMARK   55  A    between atoms: _123  and  _124
REMARK   56  A    between atoms: _124  and  _125
REMARK   57  A    between atoms: _125  and  _126
REMARK   58  A    between atoms: _126  and  _127
REMARK   59  A    between atoms: _131  and  _133
REMARK   60  A    between atoms: _133  and  _134
REMARK   61  A    between atoms: _133  and  _136
REMARK   62  A    between atoms: _136  and  _137
REMARK   63  A    between atoms: _140  and  _142
REMARK   64  A    between atoms: _142  and  _143
REMARK   65  A    between atoms: _142  and  _145
REMARK   66  A    between atoms: _148  and  _150
REMARK   67  A    between atoms: _150  and  _151
REMARK   68  A    between atoms: _150  and  _153
REMARK   69  A    between atoms: _153  and  _154
REMARK   70  A    between atoms: _157  and  _159
REMARK   71  A    between atoms: _159  and  _160
REMARK   72  A    between atoms: _159  and  _162
REMARK   73  A    between atoms: _162  and  _163
REMARK   74  A    between atoms: _166  and  _168
REMARK   75  A    between atoms: _168  and  _169
REMARK   76  A    between atoms: _171  and  _173
REMARK   77  A    between atoms: _173  and  _174
REMARK   78  A    between atoms: _173  and  _176
REMARK   79  A    between atoms: _176  and  _177
REMARK   80  A    between atoms: _180  and  _182
REMARK   81  A    between atoms: _182  and  _183
REMARK   82  A    between atoms: _185  and  _187
REMARK   83  A    between atoms: _187  and  _188
REMARK   84  A    between atoms: _187  and  _190
REMARK   85  A    between atoms: _190  and  _191
REMARK   86  A    between atoms: _191  and  _192
REMARK   87  A    between atoms: _194  and  _196
REMARK   88  A    between atoms: _196  and  _197
REMARK   89  A    between atoms: _196  and  _199
REMARK   90  A    between atoms: _199  and  _200
REMARK   91  A    between atoms: _203  and  _205
REMARK   92  A    between atoms: _205  and  _206
REMARK   93  A    between atoms: _205  and  _208
REMARK   94  A    between atoms: _208  and  _209
REMARK   95  A    between atoms: _209  and  _210
REMARK   96  A    between atoms: _210  and  _211
REMARK   97  A    between atoms: _211  and  _212
REMARK   98  A    between atoms: _216  and  _218
REMARK   99  A    between atoms: _218  and  _219
REMARK  100  A    between atoms: _222  and  _224
REMARK  101  A    between atoms: _224  and  _225
REMARK  102  A    between atoms: _224  and  _227
REMARK  103  A    between atoms: _227  and  _228
REMARK  104  A    between atoms: _231  and  _233
REMARK  105  A    between atoms: _233  and  _234
REMARK  106  A    between atoms: _233  and  _236
REMARK  107  A    between atoms: _236  and  _237
REMARK  108  A    between atoms: _240  and  _242
REMARK  109  A    between atoms: _242  and  _243
REMARK  110  A    between atoms: _242  and  _245
REMARK  111  A    between atoms: _245  and  _246
REMARK  112  A    between atoms: _249  and  _251
REMARK  113  A    between atoms: _251  and  _252
REMARK  114  A    between atoms: _251  and  _254
REMARK  115  A    between atoms: _254  and  _255
REMARK  116  A    between atoms: _260  and  _262
REMARK  117  A    between atoms: _262  and  _263
REMARK  118  A    between atoms: _262  and  _265
REMARK  119  A    between atoms: _265  and  _266
REMARK  120  A    between atoms: _271  and  _273
REMARK  121  A    between atoms: _273  and  _274
REMARK  122  A    between atoms: _273  and  _276
REMARK  123  A    between atoms: _276  and  _277
REMARK  124  A    between atoms: _280  and  _282
REMARK  125  A    between atoms: _282  and  _283
REMARK  126  A    between atoms: _285  and  _287
REMARK  127  A    between atoms: _287  and  _288
REMARK  128  A    between atoms: _287  and  _290
REMARK  129  A    between atoms: _290  and  _291
REMARK  130  A    between atoms: _294  and  _296
REMARK  131  A    between atoms: _296  and  _297
REMARK  132  A    between atoms: _296  and  _299
REMARK  133  A    between atoms: _299  and  _300
REMARK  134  A    between atoms: _303  and  _305
REMARK  135  A    between atoms: _305  and  _306
REMARK  136  A    between atoms: _309  and  _311
REMARK  137  A    between atoms: _311  and  _312
REMARK  138  A    between atoms: _311  and  _314
REMARK  139  A    between atoms: _314  and  _315
REMARK  140  A    between atoms: _315  and  _316
REMARK  141  A    between atoms: _316  and  _317
REMARK  142  A    between atoms: _317  and  _318
REMARK  143  A    between atoms: _322  and  _324
REMARK  144  A    between atoms: _324  and  _325
REMARK  145  A    between atoms: _327  and  _329
REMARK  146  A    between atoms: _329  and  _330
REMARK  147  A    between atoms: _329  and  _332
REMARK  148  A    between atoms: _332  and  _333
REMARK  149  A    between atoms: _336  and  _338
REMARK  150  A    between atoms: _338  and  _339
REMARK  151  A    between atoms: _341  and  _343
REMARK  152  A    between atoms: _343  and  _344
REMARK  153  A    between atoms: _343  and  _346
REMARK  154  A    between atoms: _346  and  _347
REMARK  155  A    between atoms: _353  and  _355
REMARK  156  A    between atoms: _355  and  _356
REMARK  157  A    between atoms: _358  and  _360
REMARK  158  A    between atoms: _360  and  _361
REMARK  159  A    between atoms: _360  and  _363
REMARK  160  A    between atoms: _366  and  _368
REMARK  161  A    between atoms: _368  and  _369
REMARK  162  A    between atoms: _371  and  _373
REMARK  163  A    between atoms: _373  and  _374
REMARK  164  A    between atoms: _373  and  _376
REMARK  165  A    between atoms: _376  and  _377
REMARK  166  A    between atoms: _383  and  _385
REMARK  167  A    between atoms: _385  and  _386
REMARK  168  A    between atoms: _385  and  _388
REMARK  169  A    between atoms: _388  and  _389
REMARK  170  A    between atoms: _394  and  _395
REMARK  171  A    between atoms: _397  and  _399
REMARK  172  A    between atoms: _399  and  _400
REMARK  173  A    between atoms: _399  and  _402
REMARK  174  A    between atoms: _402  and  _403
REMARK  175  A    between atoms: _408  and  _409
REMARK  176  A    between atoms: _411  and  _413
REMARK  177  A    between atoms: _413  and  _414
REMARK  178  A    between atoms: _413  and  _416
REMARK  179  A    between atoms: _419  and  _421
REMARK  180  A    between atoms: _421  and  _422
REMARK  181  A    between atoms: _421  and  _424
REMARK  182  A    between atoms: _424  and  _425
REMARK  183  A    between atoms: _428  and  _430
REMARK  184  A    between atoms: _430  and  _431
REMARK  185  A    between atoms: _430  and  _433
REMARK  186  A    between atoms: _436  and  _438
REMARK  187  A    between atoms: _438  and  _439
REMARK  188  A    between atoms: _438  and  _441
REMARK  189  A    between atoms: _441  and  _442
REMARK  190  A    between atoms: _445  and  _447
REMARK  191  A    between atoms: _447  and  _448
REMARK  192  A    between atoms: _447  and  _450
REMARK  193  A    between atoms: _450  and  _451
REMARK  194  A    between atoms: _454  and  _456
REMARK  195  A    between atoms: _456  and  _457
REMARK  196  A    between atoms: _456  and  _459
REMARK  197  A    between atoms: _459  and  _460
REMARK  198  A    between atoms: _460  and  _461
REMARK  199  A    between atoms: _461  and  _462
REMARK  200  A    between atoms: _462  and  _463
REMARK  201  A    between atoms: _467  and  _469
REMARK  202  A    between atoms: _469  and  _470
REMARK  203  A    between atoms: _469  and  _472
REMARK  204  A    between atoms: _472  and  _473
REMARK  205  A    between atoms: _483  and  _485
REMARK  206  A    between atoms: _485  and  _486
REMARK  207  A    between atoms: _485  and  _488
REMARK  208  A    between atoms: _488  and  _489
REMARK  209  A    between atoms: _489  and  _490
REMARK  210  A    between atoms: _493  and  _495
REMARK  211  A    between atoms: _495  and  _496
REMARK  212  A    between atoms: _495  and  _498
REMARK  213  A    between atoms: _498  and  _499
REMARK  214  A    between atoms: _501  and  _503
REMARK  215  A    between atoms: _503  and  _504
REMARK  216  A    between atoms: _503  and  _506
REMARK  217  A    between atoms: _506  and  _507
REMARK  218  A    between atoms: _513  and  _515
REMARK  219  A    between atoms: _515  and  _516
REMARK  220  A    between atoms: _515  and  _518
REMARK  221  A    between atoms: _518  and  _519
REMARK  222  A    between atoms: _522  and  _524
REMARK  223  A    between atoms: _524  and  _525
REMARK  224  A    between atoms: _524  and  _527
REMARK  225  A    between atoms: _530  and  _532
REMARK  226  A    between atoms: _532  and  _533
REMARK  227  A    between atoms: _535  and  _537
REMARK  228  A    between atoms: _537  and  _538
REMARK  229  A    between atoms: _537  and  _540
REMARK  230  A    between atoms: _540  and  _541
REMARK  231  A    between atoms: _544  and  _546
REMARK  232  A    between atoms: _546  and  _547
REMARK  233  A    between atoms: _546  and  _549
REMARK  234  A    between atoms: _549  and  _550
REMARK  235  A    between atoms: _550  and  _551
REMARK  236  A    between atoms: _551  and  _552
REMARK  237  A    between atoms: _552  and  _553
REMARK  238  A    between atoms: _557  and  _559
REMARK  239  A    between atoms: _559  and  _560
REMARK  240  A    between atoms: _559  and  _562
REMARK                            x       y       z     vdW  Elec       q    Type
REMARK                         _______ _______ _______ _____ _____    ______ ____
ROOT
ATOM      1  O   HOH     1       0.991  -7.951 -31.611  0.00  0.00    +0.000 OA
ENDROOT
TORSDOF 0
REMARK  Name = ../refined-set-2016/4o04/4o04_pocket.pdb
REMARK  240 active torsions:
REMARK  status: ('A' for Active; 'I' for Inactive)
REMARK    1  A    between atoms: _1  and  _3
REMARK    2  A    between atoms: _3  and  _4
REMARK    3  A    between atoms: _3  and  _6
REMARK    4  A    between atoms: _6  and  _7
REMARK    5  A    between atoms: _13  and  _15
REMARK    6  A    between atoms: _15  and  _16
REMARK    7  A    between atoms: _15  and  _18
REMARK    8  A    between atoms: _18  and  _19
REMARK    9  A    between atoms: _22  and  _24
REMARK   10  A    between atoms: _24  and  _25
REMARK   11  A    between atoms: _24  and  _27
REMARK   12  A    between atoms: _27  and  _28
REMARK   13  A    between atoms: _31  and  _33
REMARK   14  A    between atoms: _33  and  _34
REMARK   15  A    between atoms: _33  and  _36
REMARK   16  A    between atoms: _36  and  _37
REMARK   17  A    between atoms: _37  and  _38
REMARK   18  A    between atoms: _41  and  _43
REMARK   19  A    between atoms: _43  and  _44
REMARK   20  A    between atoms: _43  and  _46
REMARK   21  A    between atoms: _46  and  _47
REMARK   22  A    between atoms: _50  and  _52
REMARK   23  A    between atoms: _52  and  _53
REMARK   24  A    between atoms: _52  and  _55
REMARK   25  A    between atoms: _55  and  _56
REMARK   26  A    between atoms: _59  and  _61
REMARK   27  A    between atoms: _61  and  _62
REMARK   28  A    between atoms: _61  and  _64
REMARK   29  A    between atoms: _64  and  _65
REMARK   30  A    between atoms: _67  and  _69
REMARK   31  A    between atoms: _69  and  _70
REMARK   32  A    between atoms: _69  and  _72
REMARK   33  A    between atoms: _72  and  _73
REMARK   34  A    between atoms: _78  and  _80
REMARK   35  A    between atoms: _80  and  _81
REMARK   36  A    between atoms: _80  and  _83
REMARK   37  A    between atoms: _83  and  _84
REMARK   38  A    between atoms: _86  and  _88
REMARK   39  A    between atoms: _88  and  _89
REMARK   40  A    between atoms: _88  and  _91
REMARK   41  A    between atoms: _91  and  _92
REMARK   42  A    between atoms: _94  and  _96
REMARK   43  A    between atoms: _96  and  _97
REMARK   44  A    between atoms: _96  and  _99
REMARK   45  A    between atoms: _99  and  _100
REMARK   46  A    between atoms: _103  and  _105
REMARK   47  A    between atoms: _105  and  _106
REMARK   48  A    between atoms: _109  and  _111
REMARK   49  A    between atoms: _111  and  _112
REMARK   50  A    between atoms: _111  and  _114
REMARK   51  A    between atoms: _114  and  _115
REMARK   52  A    between atoms: _118  and  _120
REMARK   53  A    between atoms: _120  and  _121
REMARK   54  A    between atoms: _120  and  _123
REMARK   55  A    between atoms: _123  and  _124
REMARK   56  A    between atoms: _124  and  _125
REMARK   57  A    between atoms: _125  and  _126
REMARK   58  A    between atoms: _126  and  _127
REMARK   59  A    between atoms: _131  and  _133
REMARK   60  A    between atoms: _133  and  _134
REMARK   61  A    between atoms: _133  and  _136
REMARK   62  A    between atoms: _136  and  _137
REMARK   63  A    between atoms: _140  and  _142
REMARK   64  A    between atoms: _142  and  _143
REMARK   65  A    between atoms: _142  and  _145
REMARK   66  A    between atoms: _148  and  _150
REMARK   67  A    between atoms: _150  and  _151
REMARK   68  A    between atoms: _150  and  _153
REMARK   69  A    between atoms: _153  and  _154
REMARK   70  A    between atoms: _157  and  _159
REMARK   71  A    between atoms: _159  and  _160
REMARK   72  A    between atoms: _159  and  _162
REMARK   73  A    between atoms: _162  and  _163
REMARK   74  A    between atoms: _166  and  _168
REMARK   75  A    between atoms: _168  and  _169
REMARK   76  A    between atoms: _171  and  _173
REMARK   77  A    between atoms: _173  and  _174
REMARK   78  A    between atoms: _173  and  _176
REMARK   79  A    between atoms: _176  and  _177
REMARK   80  A    between atoms: _180  and  _182
REMARK   81  A    between atoms: _182  and  _183
REMARK   82  A    between atoms: _185  and  _187
REMARK   83  A    between atoms: _187  and  _188
REMARK   84  A    between atoms: _187  and  _190
REMARK   85  A    between atoms: _190  and  _191
REMARK   86  A    between atoms: _191  and  _192
REMARK   87  A    between atoms: _194  and  _196
REMARK   88  A    between atoms: _196  and  _197
REMARK   89  A    between atoms: _196  and  _199
REMARK   90  A    between atoms: _199  and  _200
REMARK   91  A    between atoms: _203  and  _205
REMARK   92  A    between atoms: _205  and  _206
REMARK   93  A    between atoms: _205  and  _208
REMARK   94  A    between atoms: _208  and  _209
REMARK   95  A    between atoms: _209  and  _210
REMARK   96  A    between atoms: _210  and  _211
REMARK   97  A    between atoms: _211  and  _212
REMARK   98  A    between atoms: _216  and  _218
REMARK   99  A    between atoms: _218  and  _219
REMARK  100  A    between atoms: _222  and  _224
REMARK  101  A    between atoms: _224  and  _225
REMARK  102  A    between atoms: _224  and  _227
REMARK  103  A    between atoms: _227  and  _228
REMARK  104  A    between atoms: _231  and  _233
REMARK  105  A    between atoms: _233  and  _234
REMARK  106  A    between atoms: _233  and  _236
REMARK  107  A    between atoms: _236  and  _237
REMARK  108  A    between atoms: _240  and  _242
REMARK  109  A    between atoms: _242  and  _243
REMARK  110  A    between atoms: _242  and  _245
REMARK  111  A    between atoms: _245  and  _246
REMARK  112  A    between atoms: _249  and  _251
REMARK  113  A    between atoms: _251  and  _252
REMARK  114  A    between atoms: _251  and  _254
REMARK  115  A    between atoms: _254  and  _255
REMARK  116  A    between atoms: _260  and  _262
REMARK  117  A    between atoms: _262  and  _263
REMARK  118  A    between atoms: _262  and  _265
REMARK  119  A    between atoms: _265  and  _266
REMARK  120  A    between atoms: _271  and  _273
REMARK  121  A    between atoms: _273  and  _274
REMARK  122  A    between atoms: _273  and  _276
REMARK  123  A    between atoms: _276  and  _277
REMARK  124  A    between atoms: _280  and  _282
REMARK  125  A    between atoms: _282  and  _283
REMARK  126  A    between atoms: _285  and  _287
REMARK  127  A    between atoms: _287  and  _288
REMARK  128  A    between atoms: _287  and  _290
REMARK  129  A    between atoms: _290  and  _291
REMARK  130  A    between atoms: _294  and  _296
REMARK  131  A    between atoms: _296  and  _297
REMARK  132  A    between atoms: _296  and  _299
REMARK  133  A    between atoms: _299  and  _300
REMARK  134  A    between atoms: _303  and  _305
REMARK  135  A    between atoms: _305  and  _306
REMARK  136  A    between atoms: _309  and  _311
REMARK  137  A    between atoms: _311  and  _312
REMARK  138  A    between atoms: _311  and  _314
REMARK  139  A    between atoms: _314  and  _315
REMARK  140  A    between atoms: _315  and  _316
REMARK  141  A    between atoms: _316  and  _317
REMARK  142  A    between atoms: _317  and  _318
REMARK  143  A    between atoms: _322  and  _324
REMARK  144  A    between atoms: _324  and  _325
REMARK  145  A    between atoms: _327  and  _329
REMARK  146  A    between atoms: _329  and  _330
REMARK  147  A    between atoms: _329  and  _332
REMARK  148  A    between atoms: _332  and  _333
REMARK  149  A    between atoms: _336  and  _338
REMARK  150  A    between atoms: _338  and  _339
REMARK  151  A    between atoms: _341  and  _343
REMARK  152  A    between atoms: _343  and  _344
REMARK  153  A    between atoms: _343  and  _346
REMARK  154  A    between atoms: _346  and  _347
REMARK  155  A    between atoms: _353  and  _355
REMARK  156  A    between atoms: _355  and  _356
REMARK  157  A    between atoms: _358  and  _360
REMARK  158  A    between atoms: _360  and  _361
REMARK  159  A    between atoms: _360  and  _363
REMARK  160  A    between atoms: _366  and  _368
REMARK  161  A    between atoms: _368  and  _369
REMARK  162  A    between atoms: _371  and  _373
REMARK  163  A    between atoms: _373  and  _374
REMARK  164  A    between atoms: _373  and  _376
REMARK  165  A    between atoms: _376  and  _377
REMARK  166  A    between atoms: _383  and  _385
REMARK  167  A    between atoms: _385  and  _386
REMARK  168  A    between atoms: _385  and  _388
REMARK  169  A    between atoms: _388  and  _389
REMARK  170  A    between atoms: _394  and  _395
REMARK  171  A    between atoms: _397  and  _399
REMARK  172  A    between atoms: _399  and  _400
REMARK  173  A    between atoms: _399  and  _402
REMARK  174  A    between atoms: _402  and  _403
REMARK  175  A    between atoms: _408  and  _409
REMARK  176  A    between atoms: _411  and  _413
REMARK  177  A    between atoms: _413  and  _414
REMARK  178  A    between atoms: _413  and  _416
REMARK  179  A    between atoms: _419  and  _421
REMARK  180  A    between atoms: _421  and  _422
REMARK  181  A    between atoms: _421  and  _424
REMARK  182  A    between atoms: _424  and  _425
REMARK  183  A    between atoms: _428  and  _430
REMARK  184  A    between atoms: _430  and  _431
REMARK  185  A    between atoms: _430  and  _433
REMARK  186  A    between atoms: _436  and  _438
REMARK  187  A    between atoms: _438  and  _439
REMARK  188  A    between atoms: _438  and  _441
REMARK  189  A    between atoms: _441  and  _442
REMARK  190  A    between atoms: _445  and  _447
REMARK  191  A    between atoms: _447  and  _448
REMARK  192  A    between atoms: _447  and  _450
REMARK  193  A    between atoms: _450  and  _451
REMARK  194  A    between atoms: _454  and  _456
REMARK  195  A    between atoms: _456  and  _457
REMARK  196  A    between atoms: _456  and  _459
REMARK  197  A    between atoms: _459  and  _460
REMARK  198  A    between atoms: _460  and  _461
REMARK  199  A    between atoms: _461  and  _462
REMARK  200  A    between atoms: _462  and  _463
REMARK  201  A    between atoms: _467  and  _469
REMARK  202  A    between atoms: _469  and  _470
REMARK  203  A    between atoms: _469  and  _472
REMARK  204  A    between atoms: _472  and  _473
REMARK  205  A    between atoms: _483  and  _485
REMARK  206  A    between atoms: _485  and  _486
REMARK  207  A    between atoms: _485  and  _488
REMARK  208  A    between atoms: _488  and  _489
REMARK  209  A    between atoms: _489  and  _490
REMARK  210  A    between atoms: _493  and  _495
REMARK  211  A    between atoms: _495  and  _496
REMARK  212  A    between atoms: _495  and  _498
REMARK  213  A    between atoms: _498  and  _499
REMARK  214  A    between atoms: _501  and  _503
REMARK  215  A    between atoms: _503  and  _504
REMARK  216  A    between atoms: _503  and  _506
REMARK  217  A    between atoms: _506  and  _507
REMARK  218  A    between atoms: _513  and  _515
REMARK  219  A    between atoms: _515  and  _516
REMARK  220  A    between atoms: _515  and  _518
REMARK  221  A    between atoms: _518  and  _519
REMARK  222  A    between atoms: _522  and  _524
REMARK  223  A    between atoms: _524  and  _525
REMARK  224  A    between atoms: _524  and  _527
REMARK  225  A    between atoms: _530  and  _532
REMARK  226  A    between atoms: _532  and  _533
REMARK  227  A    between atoms: _535  and  _537
REMARK  228  A    between atoms: _537  and  _538
REMARK  229  A    between atoms: _537  and  _540
REMARK  230  A    between atoms: _540  and  _541
REMARK  231  A    between atoms: _544  and  _546
REMARK  232  A    between atoms: _546  and  _547
REMARK  233  A    between atoms: _546  and  _549
REMARK  234  A    between atoms: _549  and  _550
REMARK  235  A    between atoms: _550  and  _551
REMARK  236  A    between atoms: _551  and  _552
REMARK  237  A    between atoms: _552  and  _553
REMARK  238  A    between atoms: _557  and  _559
REMARK  239  A    between atoms: _559  and  _560
REMARK  240  A    between atoms: _559  and  _562
REMARK                            x       y       z     vdW  Elec       q    Type
REMARK                         _______ _______ _______ _____ _____    ______ ____
ROOT
ATOM      1  O   HOH     1      11.136  -3.599 -21.590  0.00  0.00    +0.000 OA
ENDROOT
TORSDOF 0
REMARK  Name = ../refined-set-2016/4o04/4o04_pocket.pdb
REMARK  240 active torsions:
REMARK  status: ('A' for Active; 'I' for Inactive)
REMARK    1  A    between atoms: _1  and  _3
REMARK    2  A    between atoms: _3  and  _4
REMARK    3  A    between atoms: _3  and  _6
REMARK    4  A    between atoms: _6  and  _7
REMARK    5  A    between atoms: _13  and  _15
REMARK    6  A    between atoms: _15  and  _16
REMARK    7  A    between atoms: _15  and  _18
REMARK    8  A    between atoms: _18  and  _19
REMARK    9  A    between atoms: _22  and  _24
REMARK   10  A    between atoms: _24  and  _25
REMARK   11  A    between atoms: _24  and  _27
REMARK   12  A    between atoms: _27  and  _28
REMARK   13  A    between atoms: _31  and  _33
REMARK   14  A    between atoms: _33  and  _34
REMARK   15  A    between atoms: _33  and  _36
REMARK   16  A    between atoms: _36  and  _37
REMARK   17  A    between atoms: _37  and  _38
REMARK   18  A    between atoms: _41  and  _43
REMARK   19  A    between atoms: _43  and  _44
REMARK   20  A    between atoms: _43  and  _46
REMARK   21  A    between atoms: _46  and  _47
REMARK   22  A    between atoms: _50  and  _52
REMARK   23  A    between atoms: _52  and  _53
REMARK   24  A    between atoms: _52  and  _55
REMARK   25  A    between atoms: _55  and  _56
REMARK   26  A    between atoms: _59  and  _61
REMARK   27  A    between atoms: _61  and  _62
REMARK   28  A    between atoms: _61  and  _64
REMARK   29  A    between atoms: _64  and  _65
REMARK   30  A    between atoms: _67  and  _69
REMARK   31  A    between atoms: _69  and  _70
REMARK   32  A    between atoms: _69  and  _72
REMARK   33  A    between atoms: _72  and  _73
REMARK   34  A    between atoms: _78  and  _80
REMARK   35  A    between atoms: _80  and  _81
REMARK   36  A    between atoms: _80  and  _83
REMARK   37  A    between atoms: _83  and  _84
REMARK   38  A    between atoms: _86  and  _88
REMARK   39  A    between atoms: _88  and  _89
REMARK   40  A    between atoms: _88  and  _91
REMARK   41  A    between atoms: _91  and  _92
REMARK   42  A    between atoms: _94  and  _96
REMARK   43  A    between atoms: _96  and  _97
REMARK   44  A    between atoms: _96  and  _99
REMARK   45  A    between atoms: _99  and  _100
REMARK   46  A    between atoms: _103  and  _105
REMARK   47  A    between atoms: _105  and  _106
REMARK   48  A    between atoms: _109  and  _111
REMARK   49  A    between atoms: _111  and  _112
REMARK   50  A    between atoms: _111  and  _114
REMARK   51  A    between atoms: _114  and  _115
REMARK   52  A    between atoms: _118  and  _120
REMARK   53  A    between atoms: _120  and  _121
REMARK   54  A    between atoms: _120  and  _123
REMARK   55  A    between atoms: _123  and  _124
REMARK   56  A    between atoms: _124  and  _125
REMARK   57  A    between atoms: _125  and  _126
REMARK   58  A    between atoms: _126  and  _127
REMARK   59  A    between atoms: _131  and  _133
REMARK   60  A    between atoms: _133  and  _134
REMARK   61  A    between atoms: _133  and  _136
REMARK   62  A    between atoms: _136  and  _137
REMARK   63  A    between atoms: _140  and  _142
REMARK   64  A    between atoms: _142  and  _143
REMARK   65  A    between atoms: _142  and  _145
REMARK   66  A    between atoms: _148  and  _150
REMARK   67  A    between atoms: _150  and  _151
REMARK   68  A    between atoms: _150  and  _153
REMARK   69  A    between atoms: _153  and  _154
REMARK   70  A    between atoms: _157  and  _159
REMARK   71  A    between atoms: _159  and  _160
REMARK   72  A    between atoms: _159  and  _162
REMARK   73  A    between atoms: _162  and  _163
REMARK   74  A    between atoms: _166  and  _168
REMARK   75  A    between atoms: _168  and  _169
REMARK   76  A    between atoms: _171  and  _173
REMARK   77  A    between atoms: _173  and  _174
REMARK   78  A    between atoms: _173  and  _176
REMARK   79  A    between atoms: _176  and  _177
REMARK   80  A    between atoms: _180  and  _182
REMARK   81  A    between atoms: _182  and  _183
REMARK   82  A    between atoms: _185  and  _187
REMARK   83  A    between atoms: _187  and  _188
REMARK   84  A    between atoms: _187  and  _190
REMARK   85  A    between atoms: _190  and  _191
REMARK   86  A    between atoms: _191  and  _192
REMARK   87  A    between atoms: _194  and  _196
REMARK   88  A    between atoms: _196  and  _197
REMARK   89  A    between atoms: _196  and  _199
REMARK   90  A    between atoms: _199  and  _200
REMARK   91  A    between atoms: _203  and  _205
REMARK   92  A    between atoms: _205  and  _206
REMARK   93  A    between atoms: _205  and  _208
REMARK   94  A    between atoms: _208  and  _209
REMARK   95  A    between atoms: _209  and  _210
REMARK   96  A    between atoms: _210  and  _211
REMARK   97  A    between atoms: _211  and  _212
REMARK   98  A    between atoms: _216  and  _218
REMARK   99  A    between atoms: _218  and  _219
REMARK  100  A    between atoms: _222  and  _224
REMARK  101  A    between atoms: _224  and  _225
REMARK  102  A    between atoms: _224  and  _227
REMARK  103  A    between atoms: _227  and  _228
REMARK  104  A    between atoms: _231  and  _233
REMARK  105  A    between atoms: _233  and  _234
REMARK  106  A    between atoms: _233  and  _236
REMARK  107  A    between atoms: _236  and  _237
REMARK  108  A    between atoms: _240  and  _242
REMARK  109  A    between atoms: _242  and  _243
REMARK  110  A    between atoms: _242  and  _245
REMARK  111  A    between atoms: _245  and  _246
REMARK  112  A    between atoms: _249  and  _251
REMARK  113  A    between atoms: _251  and  _252
REMARK  114  A    between atoms: _251  and  _254
REMARK  115  A    between atoms: _254  and  _255
REMARK  116  A    between atoms: _260  and  _262
REMARK  117  A    between atoms: _262  and  _263
REMARK  118  A    between atoms: _262  and  _265
REMARK  119  A    between atoms: _265  and  _266
REMARK  120  A    between atoms: _271  and  _273
REMARK  121  A    between atoms: _273  and  _274
REMARK  122  A    between atoms: _273  and  _276
REMARK  123  A    between atoms: _276  and  _277
REMARK  124  A    between atoms: _280  and  _282
REMARK  125  A    between atoms: _282  and  _283
REMARK  126  A    between atoms: _285  and  _287
REMARK  127  A    between atoms: _287  and  _288
REMARK  128  A    between atoms: _287  and  _290
REMARK  129  A    between atoms: _290  and  _291
REMARK  130  A    between atoms: _294  and  _296
REMARK  131  A    between atoms: _296  and  _297
REMARK  132  A    between atoms: _296  and  _299
REMARK  133  A    between atoms: _299  and  _300
REMARK  134  A    between atoms: _303  and  _305
REMARK  135  A    between atoms: _305  and  _306
REMARK  136  A    between atoms: _309  and  _311
REMARK  137  A    between atoms: _311  and  _312
REMARK  138  A    between atoms: _311  and  _314
REMARK  139  A    between atoms: _314  and  _315
REMARK  140  A    between atoms: _315  and  _316
REMARK  141  A    between atoms: _316  and  _317
REMARK  142  A    between atoms: _317  and  _318
REMARK  143  A    between atoms: _322  and  _324
REMARK  144  A    between atoms: _324  and  _325
REMARK  145  A    between atoms: _327  and  _329
REMARK  146  A    between atoms: _329  and  _330
REMARK  147  A    between atoms: _329  and  _332
REMARK  148  A    between atoms: _332  and  _333
REMARK  149  A    between atoms: _336  and  _338
REMARK  150  A    between atoms: _338  and  _339
REMARK  151  A    between atoms: _341  and  _343
REMARK  152  A    between atoms: _343  and  _344
REMARK  153  A    between atoms: _343  and  _346
REMARK  154  A    between atoms: _346  and  _347
REMARK  155  A    between atoms: _353  and  _355
REMARK  156  A    between atoms: _355  and  _356
REMARK  157  A    between atoms: _358  and  _360
REMARK  158  A    between atoms: _360  and  _361
REMARK  159  A    between atoms: _360  and  _363
REMARK  160  A    between atoms: _366  and  _368
REMARK  161  A    between atoms: _368  and  _369
REMARK  162  A    between atoms: _371  and  _373
REMARK  163  A    between atoms: _373  and  _374
REMARK  164  A    between atoms: _373  and  _376
REMARK  165  A    between atoms: _376  and  _377
REMARK  166  A    between atoms: _383  and  _385
REMARK  167  A    between atoms: _385  and  _386
REMARK  168  A    between atoms: _385  and  _388
REMARK  169  A    between atoms: _388  and  _389
REMARK  170  A    between atoms: _394  and  _395
REMARK  171  A    between atoms: _397  and  _399
REMARK  172  A    between atoms: _399  and  _400
REMARK  173  A    between atoms: _399  and  _402
REMARK  174  A    between atoms: _402  and  _403
REMARK  175  A    between atoms: _408  and  _409
REMARK  176  A    between atoms: _411  and  _413
REMARK  177  A    between atoms: _413  and  _414
REMARK  178  A    between atoms: _413  and  _416
REMARK  179  A    between atoms: _419  and  _421
REMARK  180  A    between atoms: _421  and  _422
REMARK  181  A    between atoms: _421  and  _424
REMARK  182  A    between atoms: _424  and  _425
REMARK  183  A    between atoms: _428  and  _430
REMARK  184  A    between atoms: _430  and  _431
REMARK  185  A    between atoms: _430  and  _433
REMARK  186  A    between atoms: _436  and  _438
REMARK  187  A    between atoms: _438  and  _439
REMARK  188  A    between atoms: _438  and  _441
REMARK  189  A    between atoms: _441  and  _442
REMARK  190  A    between atoms: _445  and  _447
REMARK  191  A    between atoms: _447  and  _448
REMARK  192  A    between atoms: _447  and  _450
REMARK  193  A    between atoms: _450  and  _451
REMARK  194  A    between atoms: _454  and  _456
REMARK  195  A    between atoms: _456  and  _457
REMARK  196  A    between atoms: _456  and  _459
REMARK  197  A    between atoms: _459  and  _460
REMARK  198  A    between atoms: _460  and  _461
REMARK  199  A    between atoms: _461  and  _462
REMARK  200  A    between atoms: _462  and  _463
REMARK  201  A    between atoms: _467  and  _469
REMARK  202  A    between atoms: _469  and  _470
REMARK  203  A    between atoms: _469  and  _472
REMARK  204  A    between atoms: _472  and  _473
REMARK  205  A    between atoms: _483  and  _485
REMARK  206  A    between atoms: _485  and  _486
REMARK  207  A    between atoms: _485  and  _488
REMARK  208  A    between atoms: _488  and  _489
REMARK  209  A    between atoms: _489  and  _490
REMARK  210  A    between atoms: _493  and  _495
REMARK  211  A    between atoms: _495  and  _496
REMARK  212  A    between atoms: _495  and  _498
REMARK  213  A    between atoms: _498  and  _499
REMARK  214  A    between atoms: _501  and  _503
REMARK  215  A    between atoms: _503  and  _504
REMARK  216  A    between atoms: _503  and  _506
REMARK  217  A    between atoms: _506  and  _507
REMARK  218  A    between atoms: _513  and  _515
REMARK  219  A    between atoms: _515  and  _516
REMARK  220  A    between atoms: _515  and  _518
REMARK  221  A    between atoms: _518  and  _519
REMARK  222  A    between atoms: _522  and  _524
REMARK  223  A    between atoms: _524  and  _525
REMARK  224  A    between atoms: _524  and  _527
REMARK  225  A    between atoms: _530  and  _532
REMARK  226  A    between atoms: _532  and  _533
REMARK  227  A    between atoms: _535  and  _537
REMARK  228  A    between atoms: _537  and  _538
REMARK  229  A    between atoms: _537  and  _540
REMARK  230  A    between atoms: _540  and  _541
REMARK  231  A    between atoms: _544  and  _546
REMARK  232  A    between atoms: _546  and  _547
REMARK  233  A    between atoms: _546  and  _549
REMARK  234  A    between atoms: _549  and  _550
REMARK  235  A    between atoms: _550  and  _551
REMARK  236  A    between atoms: _551  and  _552
REMARK  237  A    between atoms: _552  and  _553
REMARK  238  A    between atoms: _557  and  _559
REMARK  239  A    between atoms: _559  and  _560
REMARK  240  A    between atoms: _559  and  _562
REMARK                            x       y       z     vdW  Elec       q    Type
REMARK                         _______ _______ _______ _____ _____    ______ ____
ROOT
ATOM      1  O   HOH     1       8.957  -5.160 -22.228  0.00  0.00    +0.000 OA
ENDROOT
TORSDOF 0
REMARK  Name = ../refined-set-2016/4o04/4o04_pocket.pdb
REMARK  240 active torsions:
REMARK  status: ('A' for Active; 'I' for Inactive)
REMARK    1  A    between atoms: _1  and  _3
REMARK    2  A    between atoms: _3  and  _4
REMARK    3  A    between atoms: _3  and  _6
REMARK    4  A    between atoms: _6  and  _7
REMARK    5  A    between atoms: _13  and  _15
REMARK    6  A    between atoms: _15  and  _16
REMARK    7  A    between atoms: _15  and  _18
REMARK    8  A    between atoms: _18  and  _19
REMARK    9  A    between atoms: _22  and  _24
REMARK   10  A    between atoms: _24  and  _25
REMARK   11  A    between atoms: _24  and  _27
REMARK   12  A    between atoms: _27  and  _28
REMARK   13  A    between atoms: _31  and  _33
REMARK   14  A    between atoms: _33  and  _34
REMARK   15  A    between atoms: _33  and  _36
REMARK   16  A    between atoms: _36  and  _37
REMARK   17  A    between atoms: _37  and  _38
REMARK   18  A    between atoms: _41  and  _43
REMARK   19  A    between atoms: _43  and  _44
REMARK   20  A    between atoms: _43  and  _46
REMARK   21  A    between atoms: _46  and  _47
REMARK   22  A    between atoms: _50  and  _52
REMARK   23  A    between atoms: _52  and  _53
REMARK   24  A    between atoms: _52  and  _55
REMARK   25  A    between atoms: _55  and  _56
REMARK   26  A    between atoms: _59  and  _61
REMARK   27  A    between atoms: _61  and  _62
REMARK   28  A    between atoms: _61  and  _64
REMARK   29  A    between atoms: _64  and  _65
REMARK   30  A    between atoms: _67  and  _69
REMARK   31  A    between atoms: _69  and  _70
REMARK   32  A    between atoms: _69  and  _72
REMARK   33  A    between atoms: _72  and  _73
REMARK   34  A    between atoms: _78  and  _80
REMARK   35  A    between atoms: _80  and  _81
REMARK   36  A    between atoms: _80  and  _83
REMARK   37  A    between atoms: _83  and  _84
REMARK   38  A    between atoms: _86  and  _88
REMARK   39  A    between atoms: _88  and  _89
REMARK   40  A    between atoms: _88  and  _91
REMARK   41  A    between atoms: _91  and  _92
REMARK   42  A    between atoms: _94  and  _96
REMARK   43  A    between atoms: _96  and  _97
REMARK   44  A    between atoms: _96  and  _99
REMARK   45  A    between atoms: _99  and  _100
REMARK   46  A    between atoms: _103  and  _105
REMARK   47  A    between atoms: _105  and  _106
REMARK   48  A    between atoms: _109  and  _111
REMARK   49  A    between atoms: _111  and  _112
REMARK   50  A    between atoms: _111  and  _114
REMARK   51  A    between atoms: _114  and  _115
REMARK   52  A    between atoms: _118  and  _120
REMARK   53  A    between atoms: _120  and  _121
REMARK   54  A    between atoms: _120  and  _123
REMARK   55  A    between atoms: _123  and  _124
REMARK   56  A    between atoms: _124  and  _125
REMARK   57  A    between atoms: _125  and  _126
REMARK   58  A    between atoms: _126  and  _127
REMARK   59  A    between atoms: _131  and  _133
REMARK   60  A    between atoms: _133  and  _134
REMARK   61  A    between atoms: _133  and  _136
REMARK   62  A    between atoms: _136  and  _137
REMARK   63  A    between atoms: _140  and  _142
REMARK   64  A    between atoms: _142  and  _143
REMARK   65  A    between atoms: _142  and  _145
REMARK   66  A    between atoms: _148  and  _150
REMARK   67  A    between atoms: _150  and  _151
REMARK   68  A    between atoms: _150  and  _153
REMARK   69  A    between atoms: _153  and  _154
REMARK   70  A    between atoms: _157  and  _159
REMARK   71  A    between atoms: _159  and  _160
REMARK   72  A    between atoms: _159  and  _162
REMARK   73  A    between atoms: _162  and  _163
REMARK   74  A    between atoms: _166  and  _168
REMARK   75  A    between atoms: _168  and  _169
REMARK   76  A    between atoms: _171  and  _173
REMARK   77  A    between atoms: _173  and  _174
REMARK   78  A    between atoms: _173  and  _176
REMARK   79  A    between atoms: _176  and  _177
REMARK   80  A    between atoms: _180  and  _182
REMARK   81  A    between atoms: _182  and  _183
REMARK   82  A    between atoms: _185  and  _187
REMARK   83  A    between atoms: _187  and  _188
REMARK   84  A    between atoms: _187  and  _190
REMARK   85  A    between atoms: _190  and  _191
REMARK   86  A    between atoms: _191  and  _192
REMARK   87  A    between atoms: _194  and  _196
REMARK   88  A    between atoms: _196  and  _197
REMARK   89  A    between atoms: _196  and  _199
REMARK   90  A    between atoms: _199  and  _200
REMARK   91  A    between atoms: _203  and  _205
REMARK   92  A    between atoms: _205  and  _206
REMARK   93  A    between atoms: _205  and  _208
REMARK   94  A    between atoms: _208  and  _209
REMARK   95  A    between atoms: _209  and  _210
REMARK   96  A    between atoms: _210  and  _211
REMARK   97  A    between atoms: _211  and  _212
REMARK   98  A    between atoms: _216  and  _218
REMARK   99  A    between atoms: _218  and  _219
REMARK  100  A    between atoms: _222  and  _224
REMARK  101  A    between atoms: _224  and  _225
REMARK  102  A    between atoms: _224  and  _227
REMARK  103  A    between atoms: _227  and  _228
REMARK  104  A    between atoms: _231  and  _233
REMARK  105  A    between atoms: _233  and  _234
REMARK  106  A    between atoms: _233  and  _236
REMARK  107  A    between atoms: _236  and  _237
REMARK  108  A    between atoms: _240  and  _242
REMARK  109  A    between atoms: _242  and  _243
REMARK  110  A    between atoms: _242  and  _245
REMARK  111  A    between atoms: _245  and  _246
REMARK  112  A    between atoms: _249  and  _251
REMARK  113  A    between atoms: _251  and  _252
REMARK  114  A    between atoms: _251  and  _254
REMARK  115  A    between atoms: _254  and  _255
REMARK  116  A    between atoms: _260  and  _262
REMARK  117  A    between atoms: _262  and  _263
REMARK  118  A    between atoms: _262  and  _265
REMARK  119  A    between atoms: _265  and  _266
REMARK  120  A    between atoms: _271  and  _273
REMARK  121  A    between atoms: _273  and  _274
REMARK  122  A    between atoms: _273  and  _276
REMARK  123  A    between atoms: _276  and  _277
REMARK  124  A    between atoms: _280  and  _282
REMARK  125  A    between atoms: _282  and  _283
REMARK  126  A    between atoms: _285  and  _287
REMARK  127  A    between atoms: _287  and  _288
REMARK  128  A    between atoms: _287  and  _290
REMARK  129  A    between atoms: _290  and  _291
REMARK  130  A    between atoms: _294  and  _296
REMARK  131  A    between atoms: _296  and  _297
REMARK  132  A    between atoms: _296  and  _299
REMARK  133  A    between atoms: _299  and  _300
REMARK  134  A    between atoms: _303  and  _305
REMARK  135  A    between atoms: _305  and  _306
REMARK  136  A    between atoms: _309  and  _311
REMARK  137  A    between atoms: _311  and  _312
REMARK  138  A    between atoms: _311  and  _314
REMARK  139  A    between atoms: _314  and  _315
REMARK  140  A    between atoms: _315  and  _316
REMARK  141  A    between atoms: _316  and  _317
REMARK  142  A    between atoms: _317  and  _318
REMARK  143  A    between atoms: _322  and  _324
REMARK  144  A    between atoms: _324  and  _325
REMARK  145  A    between atoms: _327  and  _329
REMARK  146  A    between atoms: _329  and  _330
REMARK  147  A    between atoms: _329  and  _332
REMARK  148  A    between atoms: _332  and  _333
REMARK  149  A    between atoms: _336  and  _338
REMARK  150  A    between atoms: _338  and  _339
REMARK  151  A    between atoms: _341  and  _343
REMARK  152  A    between atoms: _343  and  _344
REMARK  153  A    between atoms: _343  and  _346
REMARK  154  A    between atoms: _346  and  _347
REMARK  155  A    between atoms: _353  and  _355
REMARK  156  A    between atoms: _355  and  _356
REMARK  157  A    between atoms: _358  and  _360
REMARK  158  A    between atoms: _360  and  _361
REMARK  159  A    between atoms: _360  and  _363
REMARK  160  A    between atoms: _366  and  _368
REMARK  161  A    between atoms: _368  and  _369
REMARK  162  A    between atoms: _371  and  _373
REMARK  163  A    between atoms: _373  and  _374
REMARK  164  A    between atoms: _373  and  _376
REMARK  165  A    between atoms: _376  and  _377
REMARK  166  A    between atoms: _383  and  _385
REMARK  167  A    between atoms: _385  and  _386
REMARK  168  A    between atoms: _385  and  _388
REMARK  169  A    between atoms: _388  and  _389
REMARK  170  A    between atoms: _394  and  _395
REMARK  171  A    between atoms: _397  and  _399
REMARK  172  A    between atoms: _399  and  _400
REMARK  173  A    between atoms: _399  and  _402
REMARK  174  A    between atoms: _402  and  _403
REMARK  175  A    between atoms: _408  and  _409
REMARK  176  A    between atoms: _411  and  _413
REMARK  177  A    between atoms: _413  and  _414
REMARK  178  A    between atoms: _413  and  _416
REMARK  179  A    between atoms: _419  and  _421
REMARK  180  A    between atoms: _421  and  _422
REMARK  181  A    between atoms: _421  and  _424
REMARK  182  A    between atoms: _424  and  _425
REMARK  183  A    between atoms: _428  and  _430
REMARK  184  A    between atoms: _430  and  _431
REMARK  185  A    between atoms: _430  and  _433
REMARK  186  A    between atoms: _436  and  _438
REMARK  187  A    between atoms: _438  and  _439
REMARK  188  A    between atoms: _438  and  _441
REMARK  189  A    between atoms: _441  and  _442
REMARK  190  A    between atoms: _445  and  _447
REMARK  191  A    between atoms: _447  and  _448
REMARK  192  A    between atoms: _447  and  _450
REMARK  193  A    between atoms: _450  and  _451
REMARK  194  A    between atoms: _454  and  _456
REMARK  195  A    between atoms: _456  and  _457
REMARK  196  A    between atoms: _456  and  _459
REMARK  197  A    between atoms: _459  and  _460
REMARK  198  A    between atoms: _460  and  _461
REMARK  199  A    between atoms: _461  and  _462
REMARK  200  A    between atoms: _462  and  _463
REMARK  201  A    between atoms: _467  and  _469
REMARK  202  A    between atoms: _469  and  _470
REMARK  203  A    between atoms: _469  and  _472
REMARK  204  A    between atoms: _472  and  _473
REMARK  205  A    between atoms: _483  and  _485
REMARK  206  A    between atoms: _485  and  _486
REMARK  207  A    between atoms: _485  and  _488
REMARK  208  A    between atoms: _488  and  _489
REMARK  209  A    between atoms: _489  and  _490
REMARK  210  A    between atoms: _493  and  _495
REMARK  211  A    between atoms: _495  and  _496
REMARK  212  A    between atoms: _495  and  _498
REMARK  213  A    between atoms: _498  and  _499
REMARK  214  A    between atoms: _501  and  _503
REMARK  215  A    between atoms: _503  and  _504
REMARK  216  A    between atoms: _503  and  _506
REMARK  217  A    between atoms: _506  and  _507
REMARK  218  A    between atoms: _513  and  _515
REMARK  219  A    between atoms: _515  and  _516
REMARK  220  A    between atoms: _515  and  _518
REMARK  221  A    between atoms: _518  and  _519
REMARK  222  A    between atoms: _522  and  _524
REMARK  223  A    between atoms: _524  and  _525
REMARK  224  A    between atoms: _524  and  _527
REMARK  225  A    between atoms: _530  and  _532
REMARK  226  A    between atoms: _532  and  _533
REMARK  227  A    between atoms: _535  and  _537
REMARK  228  A    between atoms: _537  and  _538
REMARK  229  A    between atoms: _537  and  _540
REMARK  230  A    between atoms: _540  and  _541
REMARK  231  A    between atoms: _544  and  _546
REMARK  232  A    between atoms: _546  and  _547
REMARK  233  A    between atoms: _546  and  _549
REMARK  234  A    between atoms: _549  and  _550
REMARK  235  A    between atoms: _550  and  _551
REMARK  236  A    between atoms: _551  and  _552
REMARK  237  A    between atoms: _552  and  _553
REMARK  238  A    between atoms: _557  and  _559
REMARK  239  A    between atoms: _559  and  _560
REMARK  240  A    between atoms: _559  and  _562
REMARK                            x       y       z     vdW  Elec       q    Type
REMARK                         _______ _______ _______ _____ _____    ______ ____
ROOT
ATOM      1  O   HOH     1       3.617  -4.539 -19.466  0.00  0.00    +0.000 OA
ENDROOT
TORSDOF 0
REMARK  Name = ../refined-set-2016/4o04/4o04_pocket.pdb
REMARK  240 active torsions:
REMARK  status: ('A' for Active; 'I' for Inactive)
REMARK    1  A    between atoms: _1  and  _3
REMARK    2  A    between atoms: _3  and  _4
REMARK    3  A    between atoms: _3  and  _6
REMARK    4  A    between atoms: _6  and  _7
REMARK    5  A    between atoms: _13  and  _15
REMARK    6  A    between atoms: _15  and  _16
REMARK    7  A    between atoms: _15  and  _18
REMARK    8  A    between atoms: _18  and  _19
REMARK    9  A    between atoms: _22  and  _24
REMARK   10  A    between atoms: _24  and  _25
REMARK   11  A    between atoms: _24  and  _27
REMARK   12  A    between atoms: _27  and  _28
REMARK   13  A    between atoms: _31  and  _33
REMARK   14  A    between atoms: _33  and  _34
REMARK   15  A    between atoms: _33  and  _36
REMARK   16  A    between atoms: _36  and  _37
REMARK   17  A    between atoms: _37  and  _38
REMARK   18  A    between atoms: _41  and  _43
REMARK   19  A    between atoms: _43  and  _44
REMARK   20  A    between atoms: _43  and  _46
REMARK   21  A    between atoms: _46  and  _47
REMARK   22  A    between atoms: _50  and  _52
REMARK   23  A    between atoms: _52  and  _53
REMARK   24  A    between atoms: _52  and  _55
REMARK   25  A    between atoms: _55  and  _56
REMARK   26  A    between atoms: _59  and  _61
REMARK   27  A    between atoms: _61  and  _62
REMARK   28  A    between atoms: _61  and  _64
REMARK   29  A    between atoms: _64  and  _65
REMARK   30  A    between atoms: _67  and  _69
REMARK   31  A    between atoms: _69  and  _70
REMARK   32  A    between atoms: _69  and  _72
REMARK   33  A    between atoms: _72  and  _73
REMARK   34  A    between atoms: _78  and  _80
REMARK   35  A    between atoms: _80  and  _81
REMARK   36  A    between atoms: _80  and  _83
REMARK   37  A    between atoms: _83  and  _84
REMARK   38  A    between atoms: _86  and  _88
REMARK   39  A    between atoms: _88  and  _89
REMARK   40  A    between atoms: _88  and  _91
REMARK   41  A    between atoms: _91  and  _92
REMARK   42  A    between atoms: _94  and  _96
REMARK   43  A    between atoms: _96  and  _97
REMARK   44  A    between atoms: _96  and  _99
REMARK   45  A    between atoms: _99  and  _100
REMARK   46  A    between atoms: _103  and  _105
REMARK   47  A    between atoms: _105  and  _106
REMARK   48  A    between atoms: _109  and  _111
REMARK   49  A    between atoms: _111  and  _112
REMARK   50  A    between atoms: _111  and  _114
REMARK   51  A    between atoms: _114  and  _115
REMARK   52  A    between atoms: _118  and  _120
REMARK   53  A    between atoms: _120  and  _121
REMARK   54  A    between atoms: _120  and  _123
REMARK   55  A    between atoms: _123  and  _124
REMARK   56  A    between atoms: _124  and  _125
REMARK   57  A    between atoms: _125  and  _126
REMARK   58  A    between atoms: _126  and  _127
REMARK   59  A    between atoms: _131  and  _133
REMARK   60  A    between atoms: _133  and  _134
REMARK   61  A    between atoms: _133  and  _136
REMARK   62  A    between atoms: _136  and  _137
REMARK   63  A    between atoms: _140  and  _142
REMARK   64  A    between atoms: _142  and  _143
REMARK   65  A    between atoms: _142  and  _145
REMARK   66  A    between atoms: _148  and  _150
REMARK   67  A    between atoms: _150  and  _151
REMARK   68  A    between atoms: _150  and  _153
REMARK   69  A    between atoms: _153  and  _154
REMARK   70  A    between atoms: _157  and  _159
REMARK   71  A    between atoms: _159  and  _160
REMARK   72  A    between atoms: _159  and  _162
REMARK   73  A    between atoms: _162  and  _163
REMARK   74  A    between atoms: _166  and  _168
REMARK   75  A    between atoms: _168  and  _169
REMARK   76  A    between atoms: _171  and  _173
REMARK   77  A    between atoms: _173  and  _174
REMARK   78  A    between atoms: _173  and  _176
REMARK   79  A    between atoms: _176  and  _177
REMARK   80  A    between atoms: _180  and  _182
REMARK   81  A    between atoms: _182  and  _183
REMARK   82  A    between atoms: _185  and  _187
REMARK   83  A    between atoms: _187  and  _188
REMARK   84  A    between atoms: _187  and  _190
REMARK   85  A    between atoms: _190  and  _191
REMARK   86  A    between atoms: _191  and  _192
REMARK   87  A    between atoms: _194  and  _196
REMARK   88  A    between atoms: _196  and  _197
REMARK   89  A    between atoms: _196  and  _199
REMARK   90  A    between atoms: _199  and  _200
REMARK   91  A    between atoms: _203  and  _205
REMARK   92  A    between atoms: _205  and  _206
REMARK   93  A    between atoms: _205  and  _208
REMARK   94  A    between atoms: _208  and  _209
REMARK   95  A    between atoms: _209  and  _210
REMARK   96  A    between atoms: _210  and  _211
REMARK   97  A    between atoms: _211  and  _212
REMARK   98  A    between atoms: _216  and  _218
REMARK   99  A    between atoms: _218  and  _219
REMARK  100  A    between atoms: _222  and  _224
REMARK  101  A    between atoms: _224  and  _225
REMARK  102  A    between atoms: _224  and  _227
REMARK  103  A    between atoms: _227  and  _228
REMARK  104  A    between atoms: _231  and  _233
REMARK  105  A    between atoms: _233  and  _234
REMARK  106  A    between atoms: _233  and  _236
REMARK  107  A    between atoms: _236  and  _237
REMARK  108  A    between atoms: _240  and  _242
REMARK  109  A    between atoms: _242  and  _243
REMARK  110  A    between atoms: _242  and  _245
REMARK  111  A    between atoms: _245  and  _246
REMARK  112  A    between atoms: _249  and  _251
REMARK  113  A    between atoms: _251  and  _252
REMARK  114  A    between atoms: _251  and  _254
REMARK  115  A    between atoms: _254  and  _255
REMARK  116  A    between atoms: _260  and  _262
REMARK  117  A    between atoms: _262  and  _263
REMARK  118  A    between atoms: _262  and  _265
REMARK  119  A    between atoms: _265  and  _266
REMARK  120  A    between atoms: _271  and  _273
REMARK  121  A    between atoms: _273  and  _274
REMARK  122  A    between atoms: _273  and  _276
REMARK  123  A    between atoms: _276  and  _277
REMARK  124  A    between atoms: _280  and  _282
REMARK  125  A    between atoms: _282  and  _283
REMARK  126  A    between atoms: _285  and  _287
REMARK  127  A    between atoms: _287  and  _288
REMARK  128  A    between atoms: _287  and  _290
REMARK  129  A    between atoms: _290  and  _291
REMARK  130  A    between atoms: _294  and  _296
REMARK  131  A    between atoms: _296  and  _297
REMARK  132  A    between atoms: _296  and  _299
REMARK  133  A    between atoms: _299  and  _300
REMARK  134  A    between atoms: _303  and  _305
REMARK  135  A    between atoms: _305  and  _306
REMARK  136  A    between atoms: _309  and  _311
REMARK  137  A    between atoms: _311  and  _312
REMARK  138  A    between atoms: _311  and  _314
REMARK  139  A    between atoms: _314  and  _315
REMARK  140  A    between atoms: _315  and  _316
REMARK  141  A    between atoms: _316  and  _317
REMARK  142  A    between atoms: _317  and  _318
REMARK  143  A    between atoms: _322  and  _324
REMARK  144  A    between atoms: _324  and  _325
REMARK  145  A    between atoms: _327  and  _329
REMARK  146  A    between atoms: _329  and  _330
REMARK  147  A    between atoms: _329  and  _332
REMARK  148  A    between atoms: _332  and  _333
REMARK  149  A    between atoms: _336  and  _338
REMARK  150  A    between atoms: _338  and  _339
REMARK  151  A    between atoms: _341  and  _343
REMARK  152  A    between atoms: _343  and  _344
REMARK  153  A    between atoms: _343  and  _346
REMARK  154  A    between atoms: _346  and  _347
REMARK  155  A    between atoms: _353  and  _355
REMARK  156  A    between atoms: _355  and  _356
REMARK  157  A    between atoms: _358  and  _360
REMARK  158  A    between atoms: _360  and  _361
REMARK  159  A    between atoms: _360  and  _363
REMARK  160  A    between atoms: _366  and  _368
REMARK  161  A    between atoms: _368  and  _369
REMARK  162  A    between atoms: _371  and  _373
REMARK  163  A    between atoms: _373  and  _374
REMARK  164  A    between atoms: _373  and  _376
REMARK  165  A    between atoms: _376  and  _377
REMARK  166  A    between atoms: _383  and  _385
REMARK  167  A    between atoms: _385  and  _386
REMARK  168  A    between atoms: _385  and  _388
REMARK  169  A    between atoms: _388  and  _389
REMARK  170  A    between atoms: _394  and  _395
REMARK  171  A    between atoms: _397  and  _399
REMARK  172  A    between atoms: _399  and  _400
REMARK  173  A    between atoms: _399  and  _402
REMARK  174  A    between atoms: _402  and  _403
REMARK  175  A    between atoms: _408  and  _409
REMARK  176  A    between atoms: _411  and  _413
REMARK  177  A    between atoms: _413  and  _414
REMARK  178  A    between atoms: _413  and  _416
REMARK  179  A    between atoms: _419  and  _421
REMARK  180  A    between atoms: _421  and  _422
REMARK  181  A    between atoms: _421  and  _424
REMARK  182  A    between atoms: _424  and  _425
REMARK  183  A    between atoms: _428  and  _430
REMARK  184  A    between atoms: _430  and  _431
REMARK  185  A    between atoms: _430  and  _433
REMARK  186  A    between atoms: _436  and  _438
REMARK  187  A    between atoms: _438  and  _439
REMARK  188  A    between atoms: _438  and  _441
REMARK  189  A    between atoms: _441  and  _442
REMARK  190  A    between atoms: _445  and  _447
REMARK  191  A    between atoms: _447  and  _448
REMARK  192  A    between atoms: _447  and  _450
REMARK  193  A    between atoms: _450  and  _451
REMARK  194  A    between atoms: _454  and  _456
REMARK  195  A    between atoms: _456  and  _457
REMARK  196  A    between atoms: _456  and  _459
REMARK  197  A    between atoms: _459  and  _460
REMARK  198  A    between atoms: _460  and  _461
REMARK  199  A    between atoms: _461  and  _462
REMARK  200  A    between atoms: _462  and  _463
REMARK  201  A    between atoms: _467  and  _469
REMARK  202  A    between atoms: _469  and  _470
REMARK  203  A    between atoms: _469  and  _472
REMARK  204  A    between atoms: _472  and  _473
REMARK  205  A    between atoms: _483  and  _485
REMARK  206  A    between atoms: _485  and  _486
REMARK  207  A    between atoms: _485  and  _488
REMARK  208  A    between atoms: _488  and  _489
REMARK  209  A    between atoms: _489  and  _490
REMARK  210  A    between atoms: _493  and  _495
REMARK  211  A    between atoms: _495  and  _496
REMARK  212  A    between atoms: _495  and  _498
REMARK  213  A    between atoms: _498  and  _499
REMARK  214  A    between atoms: _501  and  _503
REMARK  215  A    between atoms: _503  and  _504
REMARK  216  A    between atoms: _503  and  _506
REMARK  217  A    between atoms: _506  and  _507
REMARK  218  A    between atoms: _513  and  _515
REMARK  219  A    between atoms: _515  and  _516
REMARK  220  A    between atoms: _515  and  _518
REMARK  221  A    between atoms: _518  and  _519
REMARK  222  A    between atoms: _522  and  _524
REMARK  223  A    between atoms: _524  and  _525
REMARK  224  A    between atoms: _524  and  _527
REMARK  225  A    between atoms: _530  and  _532
REMARK  226  A    between atoms: _532  and  _533
REMARK  227  A    between atoms: _535  and  _537
REMARK  228  A    between atoms: _537  and  _538
REMARK  229  A    between atoms: _537  and  _540
REMARK  230  A    between atoms: _540  and  _541
REMARK  231  A    between atoms: _544  and  _546
REMARK  232  A    between atoms: _546  and  _547
REMARK  233  A    between atoms: _546  and  _549
REMARK  234  A    between atoms: _549  and  _550
REMARK  235  A    between atoms: _550  and  _551
REMARK  236  A    between atoms: _551  and  _552
REMARK  237  A    between atoms: _552  and  _553
REMARK  238  A    between atoms: _557  and  _559
REMARK  239  A    between atoms: _559  and  _560
REMARK  240  A    between atoms: _559  and  _562
REMARK                            x       y       z     vdW  Elec       q    Type
REMARK                         _______ _______ _______ _____ _____    ______ ____
ROOT
ATOM      1  O   HOH     1       0.866  -5.815 -19.635  0.00  0.00    +0.000 OA
ENDROOT
TORSDOF 0
REMARK  Name = ../refined-set-2016/4o04/4o04_pocket.pdb
REMARK  240 active torsions:
REMARK  status: ('A' for Active; 'I' for Inactive)
REMARK    1  A    between atoms: _1  and  _3
REMARK    2  A    between atoms: _3  and  _4
REMARK    3  A    between atoms: _3  and  _6
REMARK    4  A    between atoms: _6  and  _7
REMARK    5  A    between atoms: _13  and  _15
REMARK    6  A    between atoms: _15  and  _16
REMARK    7  A    between atoms: _15  and  _18
REMARK    8  A    between atoms: _18  and  _19
REMARK    9  A    between atoms: _22  and  _24
REMARK   10  A    between atoms: _24  and  _25
REMARK   11  A    between atoms: _24  and  _27
REMARK   12  A    between atoms: _27  and  _28
REMARK   13  A    between atoms: _31  and  _33
REMARK   14  A    between atoms: _33  and  _34
REMARK   15  A    between atoms: _33  and  _36
REMARK   16  A    between atoms: _36  and  _37
REMARK   17  A    between atoms: _37  and  _38
REMARK   18  A    between atoms: _41  and  _43
REMARK   19  A    between atoms: _43  and  _44
REMARK   20  A    between atoms: _43  and  _46
REMARK   21  A    between atoms: _46  and  _47
REMARK   22  A    between atoms: _50  and  _52
REMARK   23  A    between atoms: _52  and  _53
REMARK   24  A    between atoms: _52  and  _55
REMARK   25  A    between atoms: _55  and  _56
REMARK   26  A    between atoms: _59  and  _61
REMARK   27  A    between atoms: _61  and  _62
REMARK   28  A    between atoms: _61  and  _64
REMARK   29  A    between atoms: _64  and  _65
REMARK   30  A    between atoms: _67  and  _69
REMARK   31  A    between atoms: _69  and  _70
REMARK   32  A    between atoms: _69  and  _72
REMARK   33  A    between atoms: _72  and  _73
REMARK   34  A    between atoms: _78  and  _80
REMARK   35  A    between atoms: _80  and  _81
REMARK   36  A    between atoms: _80  and  _83
REMARK   37  A    between atoms: _83  and  _84
REMARK   38  A    between atoms: _86  and  _88
REMARK   39  A    between atoms: _88  and  _89
REMARK   40  A    between atoms: _88  and  _91
REMARK   41  A    between atoms: _91  and  _92
REMARK   42  A    between atoms: _94  and  _96
REMARK   43  A    between atoms: _96  and  _97
REMARK   44  A    between atoms: _96  and  _99
REMARK   45  A    between atoms: _99  and  _100
REMARK   46  A    between atoms: _103  and  _105
REMARK   47  A    between atoms: _105  and  _106
REMARK   48  A    between atoms: _109  and  _111
REMARK   49  A    between atoms: _111  and  _112
REMARK   50  A    between atoms: _111  and  _114
REMARK   51  A    between atoms: _114  and  _115
REMARK   52  A    between atoms: _118  and  _120
REMARK   53  A    between atoms: _120  and  _121
REMARK   54  A    between atoms: _120  and  _123
REMARK   55  A    between atoms: _123  and  _124
REMARK   56  A    between atoms: _124  and  _125
REMARK   57  A    between atoms: _125  and  _126
REMARK   58  A    between atoms: _126  and  _127
REMARK   59  A    between atoms: _131  and  _133
REMARK   60  A    between atoms: _133  and  _134
REMARK   61  A    between atoms: _133  and  _136
REMARK   62  A    between atoms: _136  and  _137
REMARK   63  A    between atoms: _140  and  _142
REMARK   64  A    between atoms: _142  and  _143
REMARK   65  A    between atoms: _142  and  _145
REMARK   66  A    between atoms: _148  and  _150
REMARK   67  A    between atoms: _150  and  _151
REMARK   68  A    between atoms: _150  and  _153
REMARK   69  A    between atoms: _153  and  _154
REMARK   70  A    between atoms: _157  and  _159
REMARK   71  A    between atoms: _159  and  _160
REMARK   72  A    between atoms: _159  and  _162
REMARK   73  A    between atoms: _162  and  _163
REMARK   74  A    between atoms: _166  and  _168
REMARK   75  A    between atoms: _168  and  _169
REMARK   76  A    between atoms: _171  and  _173
REMARK   77  A    between atoms: _173  and  _174
REMARK   78  A    between atoms: _173  and  _176
REMARK   79  A    between atoms: _176  and  _177
REMARK   80  A    between atoms: _180  and  _182
REMARK   81  A    between atoms: _182  and  _183
REMARK   82  A    between atoms: _185  and  _187
REMARK   83  A    between atoms: _187  and  _188
REMARK   84  A    between atoms: _187  and  _190
REMARK   85  A    between atoms: _190  and  _191
REMARK   86  A    between atoms: _191  and  _192
REMARK   87  A    between atoms: _194  and  _196
REMARK   88  A    between atoms: _196  and  _197
REMARK   89  A    between atoms: _196  and  _199
REMARK   90  A    between atoms: _199  and  _200
REMARK   91  A    between atoms: _203  and  _205
REMARK   92  A    between atoms: _205  and  _206
REMARK   93  A    between atoms: _205  and  _208
REMARK   94  A    between atoms: _208  and  _209
REMARK   95  A    between atoms: _209  and  _210
REMARK   96  A    between atoms: _210  and  _211
REMARK   97  A    between atoms: _211  and  _212
REMARK   98  A    between atoms: _216  and  _218
REMARK   99  A    between atoms: _218  and  _219
REMARK  100  A    between atoms: _222  and  _224
REMARK  101  A    between atoms: _224  and  _225
REMARK  102  A    between atoms: _224  and  _227
REMARK  103  A    between atoms: _227  and  _228
REMARK  104  A    between atoms: _231  and  _233
REMARK  105  A    between atoms: _233  and  _234
REMARK  106  A    between atoms: _233  and  _236
REMARK  107  A    between atoms: _236  and  _237
REMARK  108  A    between atoms: _240  and  _242
REMARK  109  A    between atoms: _242  and  _243
REMARK  110  A    between atoms: _242  and  _245
REMARK  111  A    between atoms: _245  and  _246
REMARK  112  A    between atoms: _249  and  _251
REMARK  113  A    between atoms: _251  and  _252
REMARK  114  A    between atoms: _251  and  _254
REMARK  115  A    between atoms: _254  and  _255
REMARK  116  A    between atoms: _260  and  _262
REMARK  117  A    between atoms: _262  and  _263
REMARK  118  A    between atoms: _262  and  _265
REMARK  119  A    between atoms: _265  and  _266
REMARK  120  A    between atoms: _271  and  _273
REMARK  121  A    between atoms: _273  and  _274
REMARK  122  A    between atoms: _273  and  _276
REMARK  123  A    between atoms: _276  and  _277
REMARK  124  A    between atoms: _280  and  _282
REMARK  125  A    between atoms: _282  and  _283
REMARK  126  A    between atoms: _285  and  _287
REMARK  127  A    between atoms: _287  and  _288
REMARK  128  A    between atoms: _287  and  _290
REMARK  129  A    between atoms: _290  and  _291
REMARK  130  A    between atoms: _294  and  _296
REMARK  131  A    between atoms: _296  and  _297
REMARK  132  A    between atoms: _296  and  _299
REMARK  133  A    between atoms: _299  and  _300
REMARK  134  A    between atoms: _303  and  _305
REMARK  135  A    between atoms: _305  and  _306
REMARK  136  A    between atoms: _309  and  _311
REMARK  137  A    between atoms: _311  and  _312
REMARK  138  A    between atoms: _311  and  _314
REMARK  139  A    between atoms: _314  and  _315
REMARK  140  A    between atoms: _315  and  _316
REMARK  141  A    between atoms: _316  and  _317
REMARK  142  A    between atoms: _317  and  _318
REMARK  143  A    between atoms: _322  and  _324
REMARK  144  A    between atoms: _324  and  _325
REMARK  145  A    between atoms: _327  and  _329
REMARK  146  A    between atoms: _329  and  _330
REMARK  147  A    between atoms: _329  and  _332
REMARK  148  A    between atoms: _332  and  _333
REMARK  149  A    between atoms: _336  and  _338
REMARK  150  A    between atoms: _338  and  _339
REMARK  151  A    between atoms: _341  and  _343
REMARK  152  A    between atoms: _343  and  _344
REMARK  153  A    between atoms: _343  and  _346
REMARK  154  A    between atoms: _346  and  _347
REMARK  155  A    between atoms: _353  and  _355
REMARK  156  A    between atoms: _355  and  _356
REMARK  157  A    between atoms: _358  and  _360
REMARK  158  A    between atoms: _360  and  _361
REMARK  159  A    between atoms: _360  and  _363
REMARK  160  A    between atoms: _366  and  _368
REMARK  161  A    between atoms: _368  and  _369
REMARK  162  A    between atoms: _371  and  _373
REMARK  163  A    between atoms: _373  and  _374
REMARK  164  A    between atoms: _373  and  _376
REMARK  165  A    between atoms: _376  and  _377
REMARK  166  A    between atoms: _383  and  _385
REMARK  167  A    between atoms: _385  and  _386
REMARK  168  A    between atoms: _385  and  _388
REMARK  169  A    between atoms: _388  and  _389
REMARK  170  A    between atoms: _394  and  _395
REMARK  171  A    between atoms: _397  and  _399
REMARK  172  A    between atoms: _399  and  _400
REMARK  173  A    between atoms: _399  and  _402
REMARK  174  A    between atoms: _402  and  _403
REMARK  175  A    between atoms: _408  and  _409
REMARK  176  A    between atoms: _411  and  _413
REMARK  177  A    between atoms: _413  and  _414
REMARK  178  A    between atoms: _413  and  _416
REMARK  179  A    between atoms: _419  and  _421
REMARK  180  A    between atoms: _421  and  _422
REMARK  181  A    between atoms: _421  and  _424
REMARK  182  A    between atoms: _424  and  _425
REMARK  183  A    between atoms: _428  and  _430
REMARK  184  A    between atoms: _430  and  _431
REMARK  185  A    between atoms: _430  and  _433
REMARK  186  A    between atoms: _436  and  _438
REMARK  187  A    between atoms: _438  and  _439
REMARK  188  A    between atoms: _438  and  _441
REMARK  189  A    between atoms: _441  and  _442
REMARK  190  A    between atoms: _445  and  _447
REMARK  191  A    between atoms: _447  and  _448
REMARK  192  A    between atoms: _447  and  _450
REMARK  193  A    between atoms: _450  and  _451
REMARK  194  A    between atoms: _454  and  _456
REMARK  195  A    between atoms: _456  and  _457
REMARK  196  A    between atoms: _456  and  _459
REMARK  197  A    between atoms: _459  and  _460
REMARK  198  A    between atoms: _460  and  _461
REMARK  199  A    between atoms: _461  and  _462
REMARK  200  A    between atoms: _462  and  _463
REMARK  201  A    between atoms: _467  and  _469
REMARK  202  A    between atoms: _469  and  _470
REMARK  203  A    between atoms: _469  and  _472
REMARK  204  A    between atoms: _472  and  _473
REMARK  205  A    between atoms: _483  and  _485
REMARK  206  A    between atoms: _485  and  _486
REMARK  207  A    between atoms: _485  and  _488
REMARK  208  A    between atoms: _488  and  _489
REMARK  209  A    between atoms: _489  and  _490
REMARK  210  A    between atoms: _493  and  _495
REMARK  211  A    between atoms: _495  and  _496
REMARK  212  A    between atoms: _495  and  _498
REMARK  213  A    between atoms: _498  and  _499
REMARK  214  A    between atoms: _501  and  _503
REMARK  215  A    between atoms: _503  and  _504
REMARK  216  A    between atoms: _503  and  _506
REMARK  217  A    between atoms: _506  and  _507
REMARK  218  A    between atoms: _513  and  _515
REMARK  219  A    between atoms: _515  and  _516
REMARK  220  A    between atoms: _515  and  _518
REMARK  221  A    between atoms: _518  and  _519
REMARK  222  A    between atoms: _522  and  _524
REMARK  223  A    between atoms: _524  and  _525
REMARK  224  A    between atoms: _524  and  _527
REMARK  225  A    between atoms: _530  and  _532
REMARK  226  A    between atoms: _532  and  _533
REMARK  227  A    between atoms: _535  and  _537
REMARK  228  A    between atoms: _537  and  _538
REMARK  229  A    between atoms: _537  and  _540
REMARK  230  A    between atoms: _540  and  _541
REMARK  231  A    between atoms: _544  and  _546
REMARK  232  A    between atoms: _546  and  _547
REMARK  233  A    between atoms: _546  and  _549
REMARK  234  A    between atoms: _549  and  _550
REMARK  235  A    between atoms: _550  and  _551
REMARK  236  A    between atoms: _551  and  _552
REMARK  237  A    between atoms: _552  and  _553
REMARK  238  A    between atoms: _557  and  _559
REMARK  239  A    between atoms: _559  and  _560
REMARK  240  A    between atoms: _559  and  _562
REMARK                            x       y       z     vdW  Elec       q    Type
REMARK                         _______ _______ _______ _____ _____    ______ ____
ROOT
ATOM      1  O   HOH     1       1.940  -7.885 -28.357  0.00  0.00    +0.000 OA
ENDROOT
TORSDOF 0
REMARK  Name = ../refined-set-2016/4o04/4o04_pocket.pdb
REMARK  240 active torsions:
REMARK  status: ('A' for Active; 'I' for Inactive)
REMARK    1  A    between atoms: _1  and  _3
REMARK    2  A    between atoms: _3  and  _4
REMARK    3  A    between atoms: _3  and  _6
REMARK    4  A    between atoms: _6  and  _7
REMARK    5  A    between atoms: _13  and  _15
REMARK    6  A    between atoms: _15  and  _16
REMARK    7  A    between atoms: _15  and  _18
REMARK    8  A    between atoms: _18  and  _19
REMARK    9  A    between atoms: _22  and  _24
REMARK   10  A    between atoms: _24  and  _25
REMARK   11  A    between atoms: _24  and  _27
REMARK   12  A    between atoms: _27  and  _28
REMARK   13  A    between atoms: _31  and  _33
REMARK   14  A    between atoms: _33  and  _34
REMARK   15  A    between atoms: _33  and  _36
REMARK   16  A    between atoms: _36  and  _37
REMARK   17  A    between atoms: _37  and  _38
REMARK   18  A    between atoms: _41  and  _43
REMARK   19  A    between atoms: _43  and  _44
REMARK   20  A    between atoms: _43  and  _46
REMARK   21  A    between atoms: _46  and  _47
REMARK   22  A    between atoms: _50  and  _52
REMARK   23  A    between atoms: _52  and  _53
REMARK   24  A    between atoms: _52  and  _55
REMARK   25  A    between atoms: _55  and  _56
REMARK   26  A    between atoms: _59  and  _61
REMARK   27  A    between atoms: _61  and  _62
REMARK   28  A    between atoms: _61  and  _64
REMARK   29  A    between atoms: _64  and  _65
REMARK   30  A    between atoms: _67  and  _69
REMARK   31  A    between atoms: _69  and  _70
REMARK   32  A    between atoms: _69  and  _72
REMARK   33  A    between atoms: _72  and  _73
REMARK   34  A    between atoms: _78  and  _80
REMARK   35  A    between atoms: _80  and  _81
REMARK   36  A    between atoms: _80  and  _83
REMARK   37  A    between atoms: _83  and  _84
REMARK   38  A    between atoms: _86  and  _88
REMARK   39  A    between atoms: _88  and  _89
REMARK   40  A    between atoms: _88  and  _91
REMARK   41  A    between atoms: _91  and  _92
REMARK   42  A    between atoms: _94  and  _96
REMARK   43  A    between atoms: _96  and  _97
REMARK   44  A    between atoms: _96  and  _99
REMARK   45  A    between atoms: _99  and  _100
REMARK   46  A    between atoms: _103  and  _105
REMARK   47  A    between atoms: _105  and  _106
REMARK   48  A    between atoms: _109  and  _111
REMARK   49  A    between atoms: _111  and  _112
REMARK   50  A    between atoms: _111  and  _114
REMARK   51  A    between atoms: _114  and  _115
REMARK   52  A    between atoms: _118  and  _120
REMARK   53  A    between atoms: _120  and  _121
REMARK   54  A    between atoms: _120  and  _123
REMARK   55  A    between atoms: _123  and  _124
REMARK   56  A    between atoms: _124  and  _125
REMARK   57  A    between atoms: _125  and  _126
REMARK   58  A    between atoms: _126  and  _127
REMARK   59  A    between atoms: _131  and  _133
REMARK   60  A    between atoms: _133  and  _134
REMARK   61  A    between atoms: _133  and  _136
REMARK   62  A    between atoms: _136  and  _137
REMARK   63  A    between atoms: _140  and  _142
REMARK   64  A    between atoms: _142  and  _143
REMARK   65  A    between atoms: _142  and  _145
REMARK   66  A    between atoms: _148  and  _150
REMARK   67  A    between atoms: _150  and  _151
REMARK   68  A    between atoms: _150  and  _153
REMARK   69  A    between atoms: _153  and  _154
REMARK   70  A    between atoms: _157  and  _159
REMARK   71  A    between atoms: _159  and  _160
REMARK   72  A    between atoms: _159  and  _162
REMARK   73  A    between atoms: _162  and  _163
REMARK   74  A    between atoms: _166  and  _168
REMARK   75  A    between atoms: _168  and  _169
REMARK   76  A    between atoms: _171  and  _173
REMARK   77  A    between atoms: _173  and  _174
REMARK   78  A    between atoms: _173  and  _176
REMARK   79  A    between atoms: _176  and  _177
REMARK   80  A    between atoms: _180  and  _182
REMARK   81  A    between atoms: _182  and  _183
REMARK   82  A    between atoms: _185  and  _187
REMARK   83  A    between atoms: _187  and  _188
REMARK   84  A    between atoms: _187  and  _190
REMARK   85  A    between atoms: _190  and  _191
REMARK   86  A    between atoms: _191  and  _192
REMARK   87  A    between atoms: _194  and  _196
REMARK   88  A    between atoms: _196  and  _197
REMARK   89  A    between atoms: _196  and  _199
REMARK   90  A    between atoms: _199  and  _200
REMARK   91  A    between atoms: _203  and  _205
REMARK   92  A    between atoms: _205  and  _206
REMARK   93  A    between atoms: _205  and  _208
REMARK   94  A    between atoms: _208  and  _209
REMARK   95  A    between atoms: _209  and  _210
REMARK   96  A    between atoms: _210  and  _211
REMARK   97  A    between atoms: _211  and  _212
REMARK   98  A    between atoms: _216  and  _218
REMARK   99  A    between atoms: _218  and  _219
REMARK  100  A    between atoms: _222  and  _224
REMARK  101  A    between atoms: _224  and  _225
REMARK  102  A    between atoms: _224  and  _227
REMARK  103  A    between atoms: _227  and  _228
REMARK  104  A    between atoms: _231  and  _233
REMARK  105  A    between atoms: _233  and  _234
REMARK  106  A    between atoms: _233  and  _236
REMARK  107  A    between atoms: _236  and  _237
REMARK  108  A    between atoms: _240  and  _242
REMARK  109  A    between atoms: _242  and  _243
REMARK  110  A    between atoms: _242  and  _245
REMARK  111  A    between atoms: _245  and  _246
REMARK  112  A    between atoms: _249  and  _251
REMARK  113  A    between atoms: _251  and  _252
REMARK  114  A    between atoms: _251  and  _254
REMARK  115  A    between atoms: _254  and  _255
REMARK  116  A    between atoms: _260  and  _262
REMARK  117  A    between atoms: _262  and  _263
REMARK  118  A    between atoms: _262  and  _265
REMARK  119  A    between atoms: _265  and  _266
REMARK  120  A    between atoms: _271  and  _273
REMARK  121  A    between atoms: _273  and  _274
REMARK  122  A    between atoms: _273  and  _276
REMARK  123  A    between atoms: _276  and  _277
REMARK  124  A    between atoms: _280  and  _282
REMARK  125  A    between atoms: _282  and  _283
REMARK  126  A    between atoms: _285  and  _287
REMARK  127  A    between atoms: _287  and  _288
REMARK  128  A    between atoms: _287  and  _290
REMARK  129  A    between atoms: _290  and  _291
REMARK  130  A    between atoms: _294  and  _296
REMARK  131  A    between atoms: _296  and  _297
REMARK  132  A    between atoms: _296  and  _299
REMARK  133  A    between atoms: _299  and  _300
REMARK  134  A    between atoms: _303  and  _305
REMARK  135  A    between atoms: _305  and  _306
REMARK  136  A    between atoms: _309  and  _311
REMARK  137  A    between atoms: _311  and  _312
REMARK  138  A    between atoms: _311  and  _314
REMARK  139  A    between atoms: _314  and  _315
REMARK  140  A    between atoms: _315  and  _316
REMARK  141  A    between atoms: _316  and  _317
REMARK  142  A    between atoms: _317  and  _318
REMARK  143  A    between atoms: _322  and  _324
REMARK  144  A    between atoms: _324  and  _325
REMARK  145  A    between atoms: _327  and  _329
REMARK  146  A    between atoms: _329  and  _330
REMARK  147  A    between atoms: _329  and  _332
REMARK  148  A    between atoms: _332  and  _333
REMARK  149  A    between atoms: _336  and  _338
REMARK  150  A    between atoms: _338  and  _339
REMARK  151  A    between atoms: _341  and  _343
REMARK  152  A    between atoms: _343  and  _344
REMARK  153  A    between atoms: _343  and  _346
REMARK  154  A    between atoms: _346  and  _347
REMARK  155  A    between atoms: _353  and  _355
REMARK  156  A    between atoms: _355  and  _356
REMARK  157  A    between atoms: _358  and  _360
REMARK  158  A    between atoms: _360  and  _361
REMARK  159  A    between atoms: _360  and  _363
REMARK  160  A    between atoms: _366  and  _368
REMARK  161  A    between atoms: _368  and  _369
REMARK  162  A    between atoms: _371  and  _373
REMARK  163  A    between atoms: _373  and  _374
REMARK  164  A    between atoms: _373  and  _376
REMARK  165  A    between atoms: _376  and  _377
REMARK  166  A    between atoms: _383  and  _385
REMARK  167  A    between atoms: _385  and  _386
REMARK  168  A    between atoms: _385  and  _388
REMARK  169  A    between atoms: _388  and  _389
REMARK  170  A    between atoms: _394  and  _395
REMARK  171  A    between atoms: _397  and  _399
REMARK  172  A    between atoms: _399  and  _400
REMARK  173  A    between atoms: _399  and  _402
REMARK  174  A    between atoms: _402  and  _403
REMARK  175  A    between atoms: _408  and  _409
REMARK  176  A    between atoms: _411  and  _413
REMARK  177  A    between atoms: _413  and  _414
REMARK  178  A    between atoms: _413  and  _416
REMARK  179  A    between atoms: _419  and  _421
REMARK  180  A    between atoms: _421  and  _422
REMARK  181  A    between atoms: _421  and  _424
REMARK  182  A    between atoms: _424  and  _425
REMARK  183  A    between atoms: _428  and  _430
REMARK  184  A    between atoms: _430  and  _431
REMARK  185  A    between atoms: _430  and  _433
REMARK  186  A    between atoms: _436  and  _438
REMARK  187  A    between atoms: _438  and  _439
REMARK  188  A    between atoms: _438  and  _441
REMARK  189  A    between atoms: _441  and  _442
REMARK  190  A    between atoms: _445  and  _447
REMARK  191  A    between atoms: _447  and  _448
REMARK  192  A    between atoms: _447  and  _450
REMARK  193  A    between atoms: _450  and  _451
REMARK  194  A    between atoms: _454  and  _456
REMARK  195  A    between atoms: _456  and  _457
REMARK  196  A    between atoms: _456  and  _459
REMARK  197  A    between atoms: _459  and  _460
REMARK  198  A    between atoms: _460  and  _461
REMARK  199  A    between atoms: _461  and  _462
REMARK  200  A    between atoms: _462  and  _463
REMARK  201  A    between atoms: _467  and  _469
REMARK  202  A    between atoms: _469  and  _470
REMARK  203  A    between atoms: _469  and  _472
REMARK  204  A    between atoms: _472  and  _473
REMARK  205  A    between atoms: _483  and  _485
REMARK  206  A    between atoms: _485  and  _486
REMARK  207  A    between atoms: _485  and  _488
REMARK  208  A    between atoms: _488  and  _489
REMARK  209  A    between atoms: _489  and  _490
REMARK  210  A    between atoms: _493  and  _495
REMARK  211  A    between atoms: _495  and  _496
REMARK  212  A    between atoms: _495  and  _498
REMARK  213  A    between atoms: _498  and  _499
REMARK  214  A    between atoms: _501  and  _503
REMARK  215  A    between atoms: _503  and  _504
REMARK  216  A    between atoms: _503  and  _506
REMARK  217  A    between atoms: _506  and  _507
REMARK  218  A    between atoms: _513  and  _515
REMARK  219  A    between atoms: _515  and  _516
REMARK  220  A    between atoms: _515  and  _518
REMARK  221  A    between atoms: _518  and  _519
REMARK  222  A    between atoms: _522  and  _524
REMARK  223  A    between atoms: _524  and  _525
REMARK  224  A    between atoms: _524  and  _527
REMARK  225  A    between atoms: _530  and  _532
REMARK  226  A    between atoms: _532  and  _533
REMARK  227  A    between atoms: _535  and  _537
REMARK  228  A    between atoms: _537  and  _538
REMARK  229  A    between atoms: _537  and  _540
REMARK  230  A    between atoms: _540  and  _541
REMARK  231  A    between atoms: _544  and  _546
REMARK  232  A    between atoms: _546  and  _547
REMARK  233  A    between atoms: _546  and  _549
REMARK  234  A    between atoms: _549  and  _550
REMARK  235  A    between atoms: _550  and  _551
REMARK  236  A    between atoms: _551  and  _552
REMARK  237  A    between atoms: _552  and  _553
REMARK  238  A    between atoms: _557  and  _559
REMARK  239  A    between atoms: _559  and  _560
REMARK  240  A    between atoms: _559  and  _562
REMARK                            x       y       z     vdW  Elec       q    Type
REMARK                         _______ _______ _______ _____ _____    ______ ____
ROOT
ATOM      1  O   HOH     1       2.996  -6.577 -26.265  0.00  0.00    +0.000 OA
ENDROOT
TORSDOF 0
REMARK  Name = ../refined-set-2016/4o04/4o04_pocket.pdb
REMARK  240 active torsions:
REMARK  status: ('A' for Active; 'I' for Inactive)
REMARK    1  A    between atoms: _1  and  _3
REMARK    2  A    between atoms: _3  and  _4
REMARK    3  A    between atoms: _3  and  _6
REMARK    4  A    between atoms: _6  and  _7
REMARK    5  A    between atoms: _13  and  _15
REMARK    6  A    between atoms: _15  and  _16
REMARK    7  A    between atoms: _15  and  _18
REMARK    8  A    between atoms: _18  and  _19
REMARK    9  A    between atoms: _22  and  _24
REMARK   10  A    between atoms: _24  and  _25
REMARK   11  A    between atoms: _24  and  _27
REMARK   12  A    between atoms: _27  and  _28
REMARK   13  A    between atoms: _31  and  _33
REMARK   14  A    between atoms: _33  and  _34
REMARK   15  A    between atoms: _33  and  _36
REMARK   16  A    between atoms: _36  and  _37
REMARK   17  A    between atoms: _37  and  _38
REMARK   18  A    between atoms: _41  and  _43
REMARK   19  A    between atoms: _43  and  _44
REMARK   20  A    between atoms: _43  and  _46
REMARK   21  A    between atoms: _46  and  _47
REMARK   22  A    between atoms: _50  and  _52
REMARK   23  A    between atoms: _52  and  _53
REMARK   24  A    between atoms: _52  and  _55
REMARK   25  A    between atoms: _55  and  _56
REMARK   26  A    between atoms: _59  and  _61
REMARK   27  A    between atoms: _61  and  _62
REMARK   28  A    between atoms: _61  and  _64
REMARK   29  A    between atoms: _64  and  _65
REMARK   30  A    between atoms: _67  and  _69
REMARK   31  A    between atoms: _69  and  _70
REMARK   32  A    between atoms: _69  and  _72
REMARK   33  A    between atoms: _72  and  _73
REMARK   34  A    between atoms: _78  and  _80
REMARK   35  A    between atoms: _80  and  _81
REMARK   36  A    between atoms: _80  and  _83
REMARK   37  A    between atoms: _83  and  _84
REMARK   38  A    between atoms: _86  and  _88
REMARK   39  A    between atoms: _88  and  _89
REMARK   40  A    between atoms: _88  and  _91
REMARK   41  A    between atoms: _91  and  _92
REMARK   42  A    between atoms: _94  and  _96
REMARK   43  A    between atoms: _96  and  _97
REMARK   44  A    between atoms: _96  and  _99
REMARK   45  A    between atoms: _99  and  _100
REMARK   46  A    between atoms: _103  and  _105
REMARK   47  A    between atoms: _105  and  _106
REMARK   48  A    between atoms: _109  and  _111
REMARK   49  A    between atoms: _111  and  _112
REMARK   50  A    between atoms: _111  and  _114
REMARK   51  A    between atoms: _114  and  _115
REMARK   52  A    between atoms: _118  and  _120
REMARK   53  A    between atoms: _120  and  _121
REMARK   54  A    between atoms: _120  and  _123
REMARK   55  A    between atoms: _123  and  _124
REMARK   56  A    between atoms: _124  and  _125
REMARK   57  A    between atoms: _125  and  _126
REMARK   58  A    between atoms: _126  and  _127
REMARK   59  A    between atoms: _131  and  _133
REMARK   60  A    between atoms: _133  and  _134
REMARK   61  A    between atoms: _133  and  _136
REMARK   62  A    between atoms: _136  and  _137
REMARK   63  A    between atoms: _140  and  _142
REMARK   64  A    between atoms: _142  and  _143
REMARK   65  A    between atoms: _142  and  _145
REMARK   66  A    between atoms: _148  and  _150
REMARK   67  A    between atoms: _150  and  _151
REMARK   68  A    between atoms: _150  and  _153
REMARK   69  A    between atoms: _153  and  _154
REMARK   70  A    between atoms: _157  and  _159
REMARK   71  A    between atoms: _159  and  _160
REMARK   72  A    between atoms: _159  and  _162
REMARK   73  A    between atoms: _162  and  _163
REMARK   74  A    between atoms: _166  and  _168
REMARK   75  A    between atoms: _168  and  _169
REMARK   76  A    between atoms: _171  and  _173
REMARK   77  A    between atoms: _173  and  _174
REMARK   78  A    between atoms: _173  and  _176
REMARK   79  A    between atoms: _176  and  _177
REMARK   80  A    between atoms: _180  and  _182
REMARK   81  A    between atoms: _182  and  _183
REMARK   82  A    between atoms: _185  and  _187
REMARK   83  A    between atoms: _187  and  _188
REMARK   84  A    between atoms: _187  and  _190
REMARK   85  A    between atoms: _190  and  _191
REMARK   86  A    between atoms: _191  and  _192
REMARK   87  A    between atoms: _194  and  _196
REMARK   88  A    between atoms: _196  and  _197
REMARK   89  A    between atoms: _196  and  _199
REMARK   90  A    between atoms: _199  and  _200
REMARK   91  A    between atoms: _203  and  _205
REMARK   92  A    between atoms: _205  and  _206
REMARK   93  A    between atoms: _205  and  _208
REMARK   94  A    between atoms: _208  and  _209
REMARK   95  A    between atoms: _209  and  _210
REMARK   96  A    between atoms: _210  and  _211
REMARK   97  A    between atoms: _211  and  _212
REMARK   98  A    between atoms: _216  and  _218
REMARK   99  A    between atoms: _218  and  _219
REMARK  100  A    between atoms: _222  and  _224
REMARK  101  A    between atoms: _224  and  _225
REMARK  102  A    between atoms: _224  and  _227
REMARK  103  A    between atoms: _227  and  _228
REMARK  104  A    between atoms: _231  and  _233
REMARK  105  A    between atoms: _233  and  _234
REMARK  106  A    between atoms: _233  and  _236
REMARK  107  A    between atoms: _236  and  _237
REMARK  108  A    between atoms: _240  and  _242
REMARK  109  A    between atoms: _242  and  _243
REMARK  110  A    between atoms: _242  and  _245
REMARK  111  A    between atoms: _245  and  _246
REMARK  112  A    between atoms: _249  and  _251
REMARK  113  A    between atoms: _251  and  _252
REMARK  114  A    between atoms: _251  and  _254
REMARK  115  A    between atoms: _254  and  _255
REMARK  116  A    between atoms: _260  and  _262
REMARK  117  A    between atoms: _262  and  _263
REMARK  118  A    between atoms: _262  and  _265
REMARK  119  A    between atoms: _265  and  _266
REMARK  120  A    between atoms: _271  and  _273
REMARK  121  A    between atoms: _273  and  _274
REMARK  122  A    between atoms: _273  and  _276
REMARK  123  A    between atoms: _276  and  _277
REMARK  124  A    between atoms: _280  and  _282
REMARK  125  A    between atoms: _282  and  _283
REMARK  126  A    between atoms: _285  and  _287
REMARK  127  A    between atoms: _287  and  _288
REMARK  128  A    between atoms: _287  and  _290
REMARK  129  A    between atoms: _290  and  _291
REMARK  130  A    between atoms: _294  and  _296
REMARK  131  A    between atoms: _296  and  _297
REMARK  132  A    between atoms: _296  and  _299
REMARK  133  A    between atoms: _299  and  _300
REMARK  134  A    between atoms: _303  and  _305
REMARK  135  A    between atoms: _305  and  _306
REMARK  136  A    between atoms: _309  and  _311
REMARK  137  A    between atoms: _311  and  _312
REMARK  138  A    between atoms: _311  and  _314
REMARK  139  A    between atoms: _314  and  _315
REMARK  140  A    between atoms: _315  and  _316
REMARK  141  A    between atoms: _316  and  _317
REMARK  142  A    between atoms: _317  and  _318
REMARK  143  A    between atoms: _322  and  _324
REMARK  144  A    between atoms: _324  and  _325
REMARK  145  A    between atoms: _327  and  _329
REMARK  146  A    between atoms: _329  and  _330
REMARK  147  A    between atoms: _329  and  _332
REMARK  148  A    between atoms: _332  and  _333
REMARK  149  A    between atoms: _336  and  _338
REMARK  150  A    between atoms: _338  and  _339
REMARK  151  A    between atoms: _341  and  _343
REMARK  152  A    between atoms: _343  and  _344
REMARK  153  A    between atoms: _343  and  _346
REMARK  154  A    between atoms: _346  and  _347
REMARK  155  A    between atoms: _353  and  _355
REMARK  156  A    between atoms: _355  and  _356
REMARK  157  A    between atoms: _358  and  _360
REMARK  158  A    between atoms: _360  and  _361
REMARK  159  A    between atoms: _360  and  _363
REMARK  160  A    between atoms: _366  and  _368
REMARK  161  A    between atoms: _368  and  _369
REMARK  162  A    between atoms: _371  and  _373
REMARK  163  A    between atoms: _373  and  _374
REMARK  164  A    between atoms: _373  and  _376
REMARK  165  A    between atoms: _376  and  _377
REMARK  166  A    between atoms: _383  and  _385
REMARK  167  A    between atoms: _385  and  _386
REMARK  168  A    between atoms: _385  and  _388
REMARK  169  A    between atoms: _388  and  _389
REMARK  170  A    between atoms: _394  and  _395
REMARK  171  A    between atoms: _397  and  _399
REMARK  172  A    between atoms: _399  and  _400
REMARK  173  A    between atoms: _399  and  _402
REMARK  174  A    between atoms: _402  and  _403
REMARK  175  A    between atoms: _408  and  _409
REMARK  176  A    between atoms: _411  and  _413
REMARK  177  A    between atoms: _413  and  _414
REMARK  178  A    between atoms: _413  and  _416
REMARK  179  A    between atoms: _419  and  _421
REMARK  180  A    between atoms: _421  and  _422
REMARK  181  A    between atoms: _421  and  _424
REMARK  182  A    between atoms: _424  and  _425
REMARK  183  A    between atoms: _428  and  _430
REMARK  184  A    between atoms: _430  and  _431
REMARK  185  A    between atoms: _430  and  _433
REMARK  186  A    between atoms: _436  and  _438
REMARK  187  A    between atoms: _438  and  _439
REMARK  188  A    between atoms: _438  and  _441
REMARK  189  A    between atoms: _441  and  _442
REMARK  190  A    between atoms: _445  and  _447
REMARK  191  A    between atoms: _447  and  _448
REMARK  192  A    between atoms: _447  and  _450
REMARK  193  A    between atoms: _450  and  _451
REMARK  194  A    between atoms: _454  and  _456
REMARK  195  A    between atoms: _456  and  _457
REMARK  196  A    between atoms: _456  and  _459
REMARK  197  A    between atoms: _459  and  _460
REMARK  198  A    between atoms: _460  and  _461
REMARK  199  A    between atoms: _461  and  _462
REMARK  200  A    between atoms: _462  and  _463
REMARK  201  A    between atoms: _467  and  _469
REMARK  202  A    between atoms: _469  and  _470
REMARK  203  A    between atoms: _469  and  _472
REMARK  204  A    between atoms: _472  and  _473
REMARK  205  A    between atoms: _483  and  _485
REMARK  206  A    between atoms: _485  and  _486
REMARK  207  A    between atoms: _485  and  _488
REMARK  208  A    between atoms: _488  and  _489
REMARK  209  A    between atoms: _489  and  _490
REMARK  210  A    between atoms: _493  and  _495
REMARK  211  A    between atoms: _495  and  _496
REMARK  212  A    between atoms: _495  and  _498
REMARK  213  A    between atoms: _498  and  _499
REMARK  214  A    between atoms: _501  and  _503
REMARK  215  A    between atoms: _503  and  _504
REMARK  216  A    between atoms: _503  and  _506
REMARK  217  A    between atoms: _506  and  _507
REMARK  218  A    between atoms: _513  and  _515
REMARK  219  A    between atoms: _515  and  _516
REMARK  220  A    between atoms: _515  and  _518
REMARK  221  A    between atoms: _518  and  _519
REMARK  222  A    between atoms: _522  and  _524
REMARK  223  A    between atoms: _524  and  _525
REMARK  224  A    between atoms: _524  and  _527
REMARK  225  A    between atoms: _530  and  _532
REMARK  226  A    between atoms: _532  and  _533
REMARK  227  A    between atoms: _535  and  _537
REMARK  228  A    between atoms: _537  and  _538
REMARK  229  A    between atoms: _537  and  _540
REMARK  230  A    between atoms: _540  and  _541
REMARK  231  A    between atoms: _544  and  _546
REMARK  232  A    between atoms: _546  and  _547
REMARK  233  A    between atoms: _546  and  _549
REMARK  234  A    between atoms: _549  and  _550
REMARK  235  A    between atoms: _550  and  _551
REMARK  236  A    between atoms: _551  and  _552
REMARK  237  A    between atoms: _552  and  _553
REMARK  238  A    between atoms: _557  and  _559
REMARK  239  A    between atoms: _559  and  _560
REMARK  240  A    between atoms: _559  and  _562
REMARK                            x       y       z     vdW  Elec       q    Type
REMARK                         _______ _______ _______ _____ _____    ______ ____
ROOT
ATOM      1  O   HOH     1       4.962  -9.111 -20.181  0.00  0.00    +0.000 OA
ENDROOT
TORSDOF 0
REMARK  Name = ../refined-set-2016/4o04/4o04_pocket.pdb
REMARK  240 active torsions:
REMARK  status: ('A' for Active; 'I' for Inactive)
REMARK    1  A    between atoms: _1  and  _3
REMARK    2  A    between atoms: _3  and  _4
REMARK    3  A    between atoms: _3  and  _6
REMARK    4  A    between atoms: _6  and  _7
REMARK    5  A    between atoms: _13  and  _15
REMARK    6  A    between atoms: _15  and  _16
REMARK    7  A    between atoms: _15  and  _18
REMARK    8  A    between atoms: _18  and  _19
REMARK    9  A    between atoms: _22  and  _24
REMARK   10  A    between atoms: _24  and  _25
REMARK   11  A    between atoms: _24  and  _27
REMARK   12  A    between atoms: _27  and  _28
REMARK   13  A    between atoms: _31  and  _33
REMARK   14  A    between atoms: _33  and  _34
REMARK   15  A    between atoms: _33  and  _36
REMARK   16  A    between atoms: _36  and  _37
REMARK   17  A    between atoms: _37  and  _38
REMARK   18  A    between atoms: _41  and  _43
REMARK   19  A    between atoms: _43  and  _44
REMARK   20  A    between atoms: _43  and  _46
REMARK   21  A    between atoms: _46  and  _47
REMARK   22  A    between atoms: _50  and  _52
REMARK   23  A    between atoms: _52  and  _53
REMARK   24  A    between atoms: _52  and  _55
REMARK   25  A    between atoms: _55  and  _56
REMARK   26  A    between atoms: _59  and  _61
REMARK   27  A    between atoms: _61  and  _62
REMARK   28  A    between atoms: _61  and  _64
REMARK   29  A    between atoms: _64  and  _65
REMARK   30  A    between atoms: _67  and  _69
REMARK   31  A    between atoms: _69  and  _70
REMARK   32  A    between atoms: _69  and  _72
REMARK   33  A    between atoms: _72  and  _73
REMARK   34  A    between atoms: _78  and  _80
REMARK   35  A    between atoms: _80  and  _81
REMARK   36  A    between atoms: _80  and  _83
REMARK   37  A    between atoms: _83  and  _84
REMARK   38  A    between atoms: _86  and  _88
REMARK   39  A    between atoms: _88  and  _89
REMARK   40  A    between atoms: _88  and  _91
REMARK   41  A    between atoms: _91  and  _92
REMARK   42  A    between atoms: _94  and  _96
REMARK   43  A    between atoms: _96  and  _97
REMARK   44  A    between atoms: _96  and  _99
REMARK   45  A    between atoms: _99  and  _100
REMARK   46  A    between atoms: _103  and  _105
REMARK   47  A    between atoms: _105  and  _106
REMARK   48  A    between atoms: _109  and  _111
REMARK   49  A    between atoms: _111  and  _112
REMARK   50  A    between atoms: _111  and  _114
REMARK   51  A    between atoms: _114  and  _115
REMARK   52  A    between atoms: _118  and  _120
REMARK   53  A    between atoms: _120  and  _121
REMARK   54  A    between atoms: _120  and  _123
REMARK   55  A    between atoms: _123  and  _124
REMARK   56  A    between atoms: _124  and  _125
REMARK   57  A    between atoms: _125  and  _126
REMARK   58  A    between atoms: _126  and  _127
REMARK   59  A    between atoms: _131  and  _133
REMARK   60  A    between atoms: _133  and  _134
REMARK   61  A    between atoms: _133  and  _136
REMARK   62  A    between atoms: _136  and  _137
REMARK   63  A    between atoms: _140  and  _142
REMARK   64  A    between atoms: _142  and  _143
REMARK   65  A    between atoms: _142  and  _145
REMARK   66  A    between atoms: _148  and  _150
REMARK   67  A    between atoms: _150  and  _151
REMARK   68  A    between atoms: _150  and  _153
REMARK   69  A    between atoms: _153  and  _154
REMARK   70  A    between atoms: _157  and  _159
REMARK   71  A    between atoms: _159  and  _160
REMARK   72  A    between atoms: _159  and  _162
REMARK   73  A    between atoms: _162  and  _163
REMARK   74  A    between atoms: _166  and  _168
REMARK   75  A    between atoms: _168  and  _169
REMARK   76  A    between atoms: _171  and  _173
REMARK   77  A    between atoms: _173  and  _174
REMARK   78  A    between atoms: _173  and  _176
REMARK   79  A    between atoms: _176  and  _177
REMARK   80  A    between atoms: _180  and  _182
REMARK   81  A    between atoms: _182  and  _183
REMARK   82  A    between atoms: _185  and  _187
REMARK   83  A    between atoms: _187  and  _188
REMARK   84  A    between atoms: _187  and  _190
REMARK   85  A    between atoms: _190  and  _191
REMARK   86  A    between atoms: _191  and  _192
REMARK   87  A    between atoms: _194  and  _196
REMARK   88  A    between atoms: _196  and  _197
REMARK   89  A    between atoms: _196  and  _199
REMARK   90  A    between atoms: _199  and  _200
REMARK   91  A    between atoms: _203  and  _205
REMARK   92  A    between atoms: _205  and  _206
REMARK   93  A    between atoms: _205  and  _208
REMARK   94  A    between atoms: _208  and  _209
REMARK   95  A    between atoms: _209  and  _210
REMARK   96  A    between atoms: _210  and  _211
REMARK   97  A    between atoms: _211  and  _212
REMARK   98  A    between atoms: _216  and  _218
REMARK   99  A    between atoms: _218  and  _219
REMARK  100  A    between atoms: _222  and  _224
REMARK  101  A    between atoms: _224  and  _225
REMARK  102  A    between atoms: _224  and  _227
REMARK  103  A    between atoms: _227  and  _228
REMARK  104  A    between atoms: _231  and  _233
REMARK  105  A    between atoms: _233  and  _234
REMARK  106  A    between atoms: _233  and  _236
REMARK  107  A    between atoms: _236  and  _237
REMARK  108  A    between atoms: _240  and  _242
REMARK  109  A    between atoms: _242  and  _243
REMARK  110  A    between atoms: _242  and  _245
REMARK  111  A    between atoms: _245  and  _246
REMARK  112  A    between atoms: _249  and  _251
REMARK  113  A    between atoms: _251  and  _252
REMARK  114  A    between atoms: _251  and  _254
REMARK  115  A    between atoms: _254  and  _255
REMARK  116  A    between atoms: _260  and  _262
REMARK  117  A    between atoms: _262  and  _263
REMARK  118  A    between atoms: _262  and  _265
REMARK  119  A    between atoms: _265  and  _266
REMARK  120  A    between atoms: _271  and  _273
REMARK  121  A    between atoms: _273  and  _274
REMARK  122  A    between atoms: _273  and  _276
REMARK  123  A    between atoms: _276  and  _277
REMARK  124  A    between atoms: _280  and  _282
REMARK  125  A    between atoms: _282  and  _283
REMARK  126  A    between atoms: _285  and  _287
REMARK  127  A    between atoms: _287  and  _288
REMARK  128  A    between atoms: _287  and  _290
REMARK  129  A    between atoms: _290  and  _291
REMARK  130  A    between atoms: _294  and  _296
REMARK  131  A    between atoms: _296  and  _297
REMARK  132  A    between atoms: _296  and  _299
REMARK  133  A    between atoms: _299  and  _300
REMARK  134  A    between atoms: _303  and  _305
REMARK  135  A    between atoms: _305  and  _306
REMARK  136  A    between atoms: _309  and  _311
REMARK  137  A    between atoms: _311  and  _312
REMARK  138  A    between atoms: _311  and  _314
REMARK  139  A    between atoms: _314  and  _315
REMARK  140  A    between atoms: _315  and  _316
REMARK  141  A    between atoms: _316  and  _317
REMARK  142  A    between atoms: _317  and  _318
REMARK  143  A    between atoms: _322  and  _324
REMARK  144  A    between atoms: _324  and  _325
REMARK  145  A    between atoms: _327  and  _329
REMARK  146  A    between atoms: _329  and  _330
REMARK  147  A    between atoms: _329  and  _332
REMARK  148  A    between atoms: _332  and  _333
REMARK  149  A    between atoms: _336  and  _338
REMARK  150  A    between atoms: _338  and  _339
REMARK  151  A    between atoms: _341  and  _343
REMARK  152  A    between atoms: _343  and  _344
REMARK  153  A    between atoms: _343  and  _346
REMARK  154  A    between atoms: _346  and  _347
REMARK  155  A    between atoms: _353  and  _355
REMARK  156  A    between atoms: _355  and  _356
REMARK  157  A    between atoms: _358  and  _360
REMARK  158  A    between atoms: _360  and  _361
REMARK  159  A    between atoms: _360  and  _363
REMARK  160  A    between atoms: _366  and  _368
REMARK  161  A    between atoms: _368  and  _369
REMARK  162  A    between atoms: _371  and  _373
REMARK  163  A    between atoms: _373  and  _374
REMARK  164  A    between atoms: _373  and  _376
REMARK  165  A    between atoms: _376  and  _377
REMARK  166  A    between atoms: _383  and  _385
REMARK  167  A    between atoms: _385  and  _386
REMARK  168  A    between atoms: _385  and  _388
REMARK  169  A    between atoms: _388  and  _389
REMARK  170  A    between atoms: _394  and  _395
REMARK  171  A    between atoms: _397  and  _399
REMARK  172  A    between atoms: _399  and  _400
REMARK  173  A    between atoms: _399  and  _402
REMARK  174  A    between atoms: _402  and  _403
REMARK  175  A    between atoms: _408  and  _409
REMARK  176  A    between atoms: _411  and  _413
REMARK  177  A    between atoms: _413  and  _414
REMARK  178  A    between atoms: _413  and  _416
REMARK  179  A    between atoms: _419  and  _421
REMARK  180  A    between atoms: _421  and  _422
REMARK  181  A    between atoms: _421  and  _424
REMARK  182  A    between atoms: _424  and  _425
REMARK  183  A    between atoms: _428  and  _430
REMARK  184  A    between atoms: _430  and  _431
REMARK  185  A    between atoms: _430  and  _433
REMARK  186  A    between atoms: _436  and  _438
REMARK  187  A    between atoms: _438  and  _439
REMARK  188  A    between atoms: _438  and  _441
REMARK  189  A    between atoms: _441  and  _442
REMARK  190  A    between atoms: _445  and  _447
REMARK  191  A    between atoms: _447  and  _448
REMARK  192  A    between atoms: _447  and  _450
REMARK  193  A    between atoms: _450  and  _451
REMARK  194  A    between atoms: _454  and  _456
REMARK  195  A    between atoms: _456  and  _457
REMARK  196  A    between atoms: _456  and  _459
REMARK  197  A    between atoms: _459  and  _460
REMARK  198  A    between atoms: _460  and  _461
REMARK  199  A    between atoms: _461  and  _462
REMARK  200  A    between atoms: _462  and  _463
REMARK  201  A    between atoms: _467  and  _469
REMARK  202  A    between atoms: _469  and  _470
REMARK  203  A    between atoms: _469  and  _472
REMARK  204  A    between atoms: _472  and  _473
REMARK  205  A    between atoms: _483  and  _485
REMARK  206  A    between atoms: _485  and  _486
REMARK  207  A    between atoms: _485  and  _488
REMARK  208  A    between atoms: _488  and  _489
REMARK  209  A    between atoms: _489  and  _490
REMARK  210  A    between atoms: _493  and  _495
REMARK  211  A    between atoms: _495  and  _496
REMARK  212  A    between atoms: _495  and  _498
REMARK  213  A    between atoms: _498  and  _499
REMARK  214  A    between atoms: _501  and  _503
REMARK  215  A    between atoms: _503  and  _504
REMARK  216  A    between atoms: _503  and  _506
REMARK  217  A    between atoms: _506  and  _507
REMARK  218  A    between atoms: _513  and  _515
REMARK  219  A    between atoms: _515  and  _516
REMARK  220  A    between atoms: _515  and  _518
REMARK  221  A    between atoms: _518  and  _519
REMARK  222  A    between atoms: _522  and  _524
REMARK  223  A    between atoms: _524  and  _525
REMARK  224  A    between atoms: _524  and  _527
REMARK  225  A    between atoms: _530  and  _532
REMARK  226  A    between atoms: _532  and  _533
REMARK  227  A    between atoms: _535  and  _537
REMARK  228  A    between atoms: _537  and  _538
REMARK  229  A    between atoms: _537  and  _540
REMARK  230  A    between atoms: _540  and  _541
REMARK  231  A    between atoms: _544  and  _546
REMARK  232  A    between atoms: _546  and  _547
REMARK  233  A    between atoms: _546  and  _549
REMARK  234  A    between atoms: _549  and  _550
REMARK  235  A    between atoms: _550  and  _551
REMARK  236  A    between atoms: _551  and  _552
REMARK  237  A    between atoms: _552  and  _553
REMARK  238  A    between atoms: _557  and  _559
REMARK  239  A    between atoms: _559  and  _560
REMARK  240  A    between atoms: _559  and  _562
REMARK                            x       y       z     vdW  Elec       q    Type
REMARK                         _______ _______ _______ _____ _____    ______ ____
ROOT
ATOM      1  O   HOH     1       5.358  -1.541 -17.409  0.00  0.00    +0.000 OA
ENDROOT
TORSDOF 0
REMARK  Name = ../refined-set-2016/4o04/4o04_pocket.pdb
REMARK  240 active torsions:
REMARK  status: ('A' for Active; 'I' for Inactive)
REMARK    1  A    between atoms: _1  and  _3
REMARK    2  A    between atoms: _3  and  _4
REMARK    3  A    between atoms: _3  and  _6
REMARK    4  A    between atoms: _6  and  _7
REMARK    5  A    between atoms: _13  and  _15
REMARK    6  A    between atoms: _15  and  _16
REMARK    7  A    between atoms: _15  and  _18
REMARK    8  A    between atoms: _18  and  _19
REMARK    9  A    between atoms: _22  and  _24
REMARK   10  A    between atoms: _24  and  _25
REMARK   11  A    between atoms: _24  and  _27
REMARK   12  A    between atoms: _27  and  _28
REMARK   13  A    between atoms: _31  and  _33
REMARK   14  A    between atoms: _33  and  _34
REMARK   15  A    between atoms: _33  and  _36
REMARK   16  A    between atoms: _36  and  _37
REMARK   17  A    between atoms: _37  and  _38
REMARK   18  A    between atoms: _41  and  _43
REMARK   19  A    between atoms: _43  and  _44
REMARK   20  A    between atoms: _43  and  _46
REMARK   21  A    between atoms: _46  and  _47
REMARK   22  A    between atoms: _50  and  _52
REMARK   23  A    between atoms: _52  and  _53
REMARK   24  A    between atoms: _52  and  _55
REMARK   25  A    between atoms: _55  and  _56
REMARK   26  A    between atoms: _59  and  _61
REMARK   27  A    between atoms: _61  and  _62
REMARK   28  A    between atoms: _61  and  _64
REMARK   29  A    between atoms: _64  and  _65
REMARK   30  A    between atoms: _67  and  _69
REMARK   31  A    between atoms: _69  and  _70
REMARK   32  A    between atoms: _69  and  _72
REMARK   33  A    between atoms: _72  and  _73
REMARK   34  A    between atoms: _78  and  _80
REMARK   35  A    between atoms: _80  and  _81
REMARK   36  A    between atoms: _80  and  _83
REMARK   37  A    between atoms: _83  and  _84
REMARK   38  A    between atoms: _86  and  _88
REMARK   39  A    between atoms: _88  and  _89
REMARK   40  A    between atoms: _88  and  _91
REMARK   41  A    between atoms: _91  and  _92
REMARK   42  A    between atoms: _94  and  _96
REMARK   43  A    between atoms: _96  and  _97
REMARK   44  A    between atoms: _96  and  _99
REMARK   45  A    between atoms: _99  and  _100
REMARK   46  A    between atoms: _103  and  _105
REMARK   47  A    between atoms: _105  and  _106
REMARK   48  A    between atoms: _109  and  _111
REMARK   49  A    between atoms: _111  and  _112
REMARK   50  A    between atoms: _111  and  _114
REMARK   51  A    between atoms: _114  and  _115
REMARK   52  A    between atoms: _118  and  _120
REMARK   53  A    between atoms: _120  and  _121
REMARK   54  A    between atoms: _120  and  _123
REMARK   55  A    between atoms: _123  and  _124
REMARK   56  A    between atoms: _124  and  _125
REMARK   57  A    between atoms: _125  and  _126
REMARK   58  A    between atoms: _126  and  _127
REMARK   59  A    between atoms: _131  and  _133
REMARK   60  A    between atoms: _133  and  _134
REMARK   61  A    between atoms: _133  and  _136
REMARK   62  A    between atoms: _136  and  _137
REMARK   63  A    between atoms: _140  and  _142
REMARK   64  A    between atoms: _142  and  _143
REMARK   65  A    between atoms: _142  and  _145
REMARK   66  A    between atoms: _148  and  _150
REMARK   67  A    between atoms: _150  and  _151
REMARK   68  A    between atoms: _150  and  _153
REMARK   69  A    between atoms: _153  and  _154
REMARK   70  A    between atoms: _157  and  _159
REMARK   71  A    between atoms: _159  and  _160
REMARK   72  A    between atoms: _159  and  _162
REMARK   73  A    between atoms: _162  and  _163
REMARK   74  A    between atoms: _166  and  _168
REMARK   75  A    between atoms: _168  and  _169
REMARK   76  A    between atoms: _171  and  _173
REMARK   77  A    between atoms: _173  and  _174
REMARK   78  A    between atoms: _173  and  _176
REMARK   79  A    between atoms: _176  and  _177
REMARK   80  A    between atoms: _180  and  _182
REMARK   81  A    between atoms: _182  and  _183
REMARK   82  A    between atoms: _185  and  _187
REMARK   83  A    between atoms: _187  and  _188
REMARK   84  A    between atoms: _187  and  _190
REMARK   85  A    between atoms: _190  and  _191
REMARK   86  A    between atoms: _191  and  _192
REMARK   87  A    between atoms: _194  and  _196
REMARK   88  A    between atoms: _196  and  _197
REMARK   89  A    between atoms: _196  and  _199
REMARK   90  A    between atoms: _199  and  _200
REMARK   91  A    between atoms: _203  and  _205
REMARK   92  A    between atoms: _205  and  _206
REMARK   93  A    between atoms: _205  and  _208
REMARK   94  A    between atoms: _208  and  _209
REMARK   95  A    between atoms: _209  and  _210
REMARK   96  A    between atoms: _210  and  _211
REMARK   97  A    between atoms: _211  and  _212
REMARK   98  A    between atoms: _216  and  _218
REMARK   99  A    between atoms: _218  and  _219
REMARK  100  A    between atoms: _222  and  _224
REMARK  101  A    between atoms: _224  and  _225
REMARK  102  A    between atoms: _224  and  _227
REMARK  103  A    between atoms: _227  and  _228
REMARK  104  A    between atoms: _231  and  _233
REMARK  105  A    between atoms: _233  and  _234
REMARK  106  A    between atoms: _233  and  _236
REMARK  107  A    between atoms: _236  and  _237
REMARK  108  A    between atoms: _240  and  _242
REMARK  109  A    between atoms: _242  and  _243
REMARK  110  A    between atoms: _242  and  _245
REMARK  111  A    between atoms: _245  and  _246
REMARK  112  A    between atoms: _249  and  _251
REMARK  113  A    between atoms: _251  and  _252
REMARK  114  A    between atoms: _251  and  _254
REMARK  115  A    between atoms: _254  and  _255
REMARK  116  A    between atoms: _260  and  _262
REMARK  117  A    between atoms: _262  and  _263
REMARK  118  A    between atoms: _262  and  _265
REMARK  119  A    between atoms: _265  and  _266
REMARK  120  A    between atoms: _271  and  _273
REMARK  121  A    between atoms: _273  and  _274
REMARK  122  A    between atoms: _273  and  _276
REMARK  123  A    between atoms: _276  and  _277
REMARK  124  A    between atoms: _280  and  _282
REMARK  125  A    between atoms: _282  and  _283
REMARK  126  A    between atoms: _285  and  _287
REMARK  127  A    between atoms: _287  and  _288
REMARK  128  A    between atoms: _287  and  _290
REMARK  129  A    between atoms: _290  and  _291
REMARK  130  A    between atoms: _294  and  _296
REMARK  131  A    between atoms: _296  and  _297
REMARK  132  A    between atoms: _296  and  _299
REMARK  133  A    between atoms: _299  and  _300
REMARK  134  A    between atoms: _303  and  _305
REMARK  135  A    between atoms: _305  and  _306
REMARK  136  A    between atoms: _309  and  _311
REMARK  137  A    between atoms: _311  and  _312
REMARK  138  A    between atoms: _311  and  _314
REMARK  139  A    between atoms: _314  and  _315
REMARK  140  A    between atoms: _315  and  _316
REMARK  141  A    between atoms: _316  and  _317
REMARK  142  A    between atoms: _317  and  _318
REMARK  143  A    between atoms: _322  and  _324
REMARK  144  A    between atoms: _324  and  _325
REMARK  145  A    between atoms: _327  and  _329
REMARK  146  A    between atoms: _329  and  _330
REMARK  147  A    between atoms: _329  and  _332
REMARK  148  A    between atoms: _332  and  _333
REMARK  149  A    between atoms: _336  and  _338
REMARK  150  A    between atoms: _338  and  _339
REMARK  151  A    between atoms: _341  and  _343
REMARK  152  A    between atoms: _343  and  _344
REMARK  153  A    between atoms: _343  and  _346
REMARK  154  A    between atoms: _346  and  _347
REMARK  155  A    between atoms: _353  and  _355
REMARK  156  A    between atoms: _355  and  _356
REMARK  157  A    between atoms: _358  and  _360
REMARK  158  A    between atoms: _360  and  _361
REMARK  159  A    between atoms: _360  and  _363
REMARK  160  A    between atoms: _366  and  _368
REMARK  161  A    between atoms: _368  and  _369
REMARK  162  A    between atoms: _371  and  _373
REMARK  163  A    between atoms: _373  and  _374
REMARK  164  A    between atoms: _373  and  _376
REMARK  165  A    between atoms: _376  and  _377
REMARK  166  A    between atoms: _383  and  _385
REMARK  167  A    between atoms: _385  and  _386
REMARK  168  A    between atoms: _385  and  _388
REMARK  169  A    between atoms: _388  and  _389
REMARK  170  A    between atoms: _394  and  _395
REMARK  171  A    between atoms: _397  and  _399
REMARK  172  A    between atoms: _399  and  _400
REMARK  173  A    between atoms: _399  and  _402
REMARK  174  A    between atoms: _402  and  _403
REMARK  175  A    between atoms: _408  and  _409
REMARK  176  A    between atoms: _411  and  _413
REMARK  177  A    between atoms: _413  and  _414
REMARK  178  A    between atoms: _413  and  _416
REMARK  179  A    between atoms: _419  and  _421
REMARK  180  A    between atoms: _421  and  _422
REMARK  181  A    between atoms: _421  and  _424
REMARK  182  A    between atoms: _424  and  _425
REMARK  183  A    between atoms: _428  and  _430
REMARK  184  A    between atoms: _430  and  _431
REMARK  185  A    between atoms: _430  and  _433
REMARK  186  A    between atoms: _436  and  _438
REMARK  187  A    between atoms: _438  and  _439
REMARK  188  A    between atoms: _438  and  _441
REMARK  189  A    between atoms: _441  and  _442
REMARK  190  A    between atoms: _445  and  _447
REMARK  191  A    between atoms: _447  and  _448
REMARK  192  A    between atoms: _447  and  _450
REMARK  193  A    between atoms: _450  and  _451
REMARK  194  A    between atoms: _454  and  _456
REMARK  195  A    between atoms: _456  and  _457
REMARK  196  A    between atoms: _456  and  _459
REMARK  197  A    between atoms: _459  and  _460
REMARK  198  A    between atoms: _460  and  _461
REMARK  199  A    between atoms: _461  and  _462
REMARK  200  A    between atoms: _462  and  _463
REMARK  201  A    between atoms: _467  and  _469
REMARK  202  A    between atoms: _469  and  _470
REMARK  203  A    between atoms: _469  and  _472
REMARK  204  A    between atoms: _472  and  _473
REMARK  205  A    between atoms: _483  and  _485
REMARK  206  A    between atoms: _485  and  _486
REMARK  207  A    between atoms: _485  and  _488
REMARK  208  A    between atoms: _488  and  _489
REMARK  209  A    between atoms: _489  and  _490
REMARK  210  A    between atoms: _493  and  _495
REMARK  211  A    between atoms: _495  and  _496
REMARK  212  A    between atoms: _495  and  _498
REMARK  213  A    between atoms: _498  and  _499
REMARK  214  A    between atoms: _501  and  _503
REMARK  215  A    between atoms: _503  and  _504
REMARK  216  A    between atoms: _503  and  _506
REMARK  217  A    between atoms: _506  and  _507
REMARK  218  A    between atoms: _513  and  _515
REMARK  219  A    between atoms: _515  and  _516
REMARK  220  A    between atoms: _515  and  _518
REMARK  221  A    between atoms: _518  and  _519
REMARK  222  A    between atoms: _522  and  _524
REMARK  223  A    between atoms: _524  and  _525
REMARK  224  A    between atoms: _524  and  _527
REMARK  225  A    between atoms: _530  and  _532
REMARK  226  A    between atoms: _532  and  _533
REMARK  227  A    between atoms: _535  and  _537
REMARK  228  A    between atoms: _537  and  _538
REMARK  229  A    between atoms: _537  and  _540
REMARK  230  A    between atoms: _540  and  _541
REMARK  231  A    between atoms: _544  and  _546
REMARK  232  A    between atoms: _546  and  _547
REMARK  233  A    between atoms: _546  and  _549
REMARK  234  A    between atoms: _549  and  _550
REMARK  235  A    between atoms: _550  and  _551
REMARK  236  A    between atoms: _551  and  _552
REMARK  237  A    between atoms: _552  and  _553
REMARK  238  A    between atoms: _557  and  _559
REMARK  239  A    between atoms: _559  and  _560
REMARK  240  A    between atoms: _559  and  _562
REMARK                            x       y       z     vdW  Elec       q    Type
REMARK                         _______ _______ _______ _____ _____    ______ ____
ROOT
ATOM      1  O   HOH     1       1.508  -5.792 -30.135  0.00  0.00    +0.000 OA
ENDROOT
TORSDOF 0
REMARK  Name = ../refined-set-2016/4o04/4o04_pocket.pdb
REMARK  240 active torsions:
REMARK  status: ('A' for Active; 'I' for Inactive)
REMARK    1  A    between atoms: _1  and  _3
REMARK    2  A    between atoms: _3  and  _4
REMARK    3  A    between atoms: _3  and  _6
REMARK    4  A    between atoms: _6  and  _7
REMARK    5  A    between atoms: _13  and  _15
REMARK    6  A    between atoms: _15  and  _16
REMARK    7  A    between atoms: _15  and  _18
REMARK    8  A    between atoms: _18  and  _19
REMARK    9  A    between atoms: _22  and  _24
REMARK   10  A    between atoms: _24  and  _25
REMARK   11  A    between atoms: _24  and  _27
REMARK   12  A    between atoms: _27  and  _28
REMARK   13  A    between atoms: _31  and  _33
REMARK   14  A    between atoms: _33  and  _34
REMARK   15  A    between atoms: _33  and  _36
REMARK   16  A    between atoms: _36  and  _37
REMARK   17  A    between atoms: _37  and  _38
REMARK   18  A    between atoms: _41  and  _43
REMARK   19  A    between atoms: _43  and  _44
REMARK   20  A    between atoms: _43  and  _46
REMARK   21  A    between atoms: _46  and  _47
REMARK   22  A    between atoms: _50  and  _52
REMARK   23  A    between atoms: _52  and  _53
REMARK   24  A    between atoms: _52  and  _55
REMARK   25  A    between atoms: _55  and  _56
REMARK   26  A    between atoms: _59  and  _61
REMARK   27  A    between atoms: _61  and  _62
REMARK   28  A    between atoms: _61  and  _64
REMARK   29  A    between atoms: _64  and  _65
REMARK   30  A    between atoms: _67  and  _69
REMARK   31  A    between atoms: _69  and  _70
REMARK   32  A    between atoms: _69  and  _72
REMARK   33  A    between atoms: _72  and  _73
REMARK   34  A    between atoms: _78  and  _80
REMARK   35  A    between atoms: _80  and  _81
REMARK   36  A    between atoms: _80  and  _83
REMARK   37  A    between atoms: _83  and  _84
REMARK   38  A    between atoms: _86  and  _88
REMARK   39  A    between atoms: _88  and  _89
REMARK   40  A    between atoms: _88  and  _91
REMARK   41  A    between atoms: _91  and  _92
REMARK   42  A    between atoms: _94  and  _96
REMARK   43  A    between atoms: _96  and  _97
REMARK   44  A    between atoms: _96  and  _99
REMARK   45  A    between atoms: _99  and  _100
REMARK   46  A    between atoms: _103  and  _105
REMARK   47  A    between atoms: _105  and  _106
REMARK   48  A    between atoms: _109  and  _111
REMARK   49  A    between atoms: _111  and  _112
REMARK   50  A    between atoms: _111  and  _114
REMARK   51  A    between atoms: _114  and  _115
REMARK   52  A    between atoms: _118  and  _120
REMARK   53  A    between atoms: _120  and  _121
REMARK   54  A    between atoms: _120  and  _123
REMARK   55  A    between atoms: _123  and  _124
REMARK   56  A    between atoms: _124  and  _125
REMARK   57  A    between atoms: _125  and  _126
REMARK   58  A    between atoms: _126  and  _127
REMARK   59  A    between atoms: _131  and  _133
REMARK   60  A    between atoms: _133  and  _134
REMARK   61  A    between atoms: _133  and  _136
REMARK   62  A    between atoms: _136  and  _137
REMARK   63  A    between atoms: _140  and  _142
REMARK   64  A    between atoms: _142  and  _143
REMARK   65  A    between atoms: _142  and  _145
REMARK   66  A    between atoms: _148  and  _150
REMARK   67  A    between atoms: _150  and  _151
REMARK   68  A    between atoms: _150  and  _153
REMARK   69  A    between atoms: _153  and  _154
REMARK   70  A    between atoms: _157  and  _159
REMARK   71  A    between atoms: _159  and  _160
REMARK   72  A    between atoms: _159  and  _162
REMARK   73  A    between atoms: _162  and  _163
REMARK   74  A    between atoms: _166  and  _168
REMARK   75  A    between atoms: _168  and  _169
REMARK   76  A    between atoms: _171  and  _173
REMARK   77  A    between atoms: _173  and  _174
REMARK   78  A    between atoms: _173  and  _176
REMARK   79  A    between atoms: _176  and  _177
REMARK   80  A    between atoms: _180  and  _182
REMARK   81  A    between atoms: _182  and  _183
REMARK   82  A    between atoms: _185  and  _187
REMARK   83  A    between atoms: _187  and  _188
REMARK   84  A    between atoms: _187  and  _190
REMARK   85  A    between atoms: _190  and  _191
REMARK   86  A    between atoms: _191  and  _192
REMARK   87  A    between atoms: _194  and  _196
REMARK   88  A    between atoms: _196  and  _197
REMARK   89  A    between atoms: _196  and  _199
REMARK   90  A    between atoms: _199  and  _200
REMARK   91  A    between atoms: _203  and  _205
REMARK   92  A    between atoms: _205  and  _206
REMARK   93  A    between atoms: _205  and  _208
REMARK   94  A    between atoms: _208  and  _209
REMARK   95  A    between atoms: _209  and  _210
REMARK   96  A    between atoms: _210  and  _211
REMARK   97  A    between atoms: _211  and  _212
REMARK   98  A    between atoms: _216  and  _218
REMARK   99  A    between atoms: _218  and  _219
REMARK  100  A    between atoms: _222  and  _224
REMARK  101  A    between atoms: _224  and  _225
REMARK  102  A    between atoms: _224  and  _227
REMARK  103  A    between atoms: _227  and  _228
REMARK  104  A    between atoms: _231  and  _233
REMARK  105  A    between atoms: _233  and  _234
REMARK  106  A    between atoms: _233  and  _236
REMARK  107  A    between atoms: _236  and  _237
REMARK  108  A    between atoms: _240  and  _242
REMARK  109  A    between atoms: _242  and  _243
REMARK  110  A    between atoms: _242  and  _245
REMARK  111  A    between atoms: _245  and  _246
REMARK  112  A    between atoms: _249  and  _251
REMARK  113  A    between atoms: _251  and  _252
REMARK  114  A    between atoms: _251  and  _254
REMARK  115  A    between atoms: _254  and  _255
REMARK  116  A    between atoms: _260  and  _262
REMARK  117  A    between atoms: _262  and  _263
REMARK  118  A    between atoms: _262  and  _265
REMARK  119  A    between atoms: _265  and  _266
REMARK  120  A    between atoms: _271  and  _273
REMARK  121  A    between atoms: _273  and  _274
REMARK  122  A    between atoms: _273  and  _276
REMARK  123  A    between atoms: _276  and  _277
REMARK  124  A    between atoms: _280  and  _282
REMARK  125  A    between atoms: _282  and  _283
REMARK  126  A    between atoms: _285  and  _287
REMARK  127  A    between atoms: _287  and  _288
REMARK  128  A    between atoms: _287  and  _290
REMARK  129  A    between atoms: _290  and  _291
REMARK  130  A    between atoms: _294  and  _296
REMARK  131  A    between atoms: _296  and  _297
REMARK  132  A    between atoms: _296  and  _299
REMARK  133  A    between atoms: _299  and  _300
REMARK  134  A    between atoms: _303  and  _305
REMARK  135  A    between atoms: _305  and  _306
REMARK  136  A    between atoms: _309  and  _311
REMARK  137  A    between atoms: _311  and  _312
REMARK  138  A    between atoms: _311  and  _314
REMARK  139  A    between atoms: _314  and  _315
REMARK  140  A    between atoms: _315  and  _316
REMARK  141  A    between atoms: _316  and  _317
REMARK  142  A    between atoms: _317  and  _318
REMARK  143  A    between atoms: _322  and  _324
REMARK  144  A    between atoms: _324  and  _325
REMARK  145  A    between atoms: _327  and  _329
REMARK  146  A    between atoms: _329  and  _330
REMARK  147  A    between atoms: _329  and  _332
REMARK  148  A    between atoms: _332  and  _333
REMARK  149  A    between atoms: _336  and  _338
REMARK  150  A    between atoms: _338  and  _339
REMARK  151  A    between atoms: _341  and  _343
REMARK  152  A    between atoms: _343  and  _344
REMARK  153  A    between atoms: _343  and  _346
REMARK  154  A    between atoms: _346  and  _347
REMARK  155  A    between atoms: _353  and  _355
REMARK  156  A    between atoms: _355  and  _356
REMARK  157  A    between atoms: _358  and  _360
REMARK  158  A    between atoms: _360  and  _361
REMARK  159  A    between atoms: _360  and  _363
REMARK  160  A    between atoms: _366  and  _368
REMARK  161  A    between atoms: _368  and  _369
REMARK  162  A    between atoms: _371  and  _373
REMARK  163  A    between atoms: _373  and  _374
REMARK  164  A    between atoms: _373  and  _376
REMARK  165  A    between atoms: _376  and  _377
REMARK  166  A    between atoms: _383  and  _385
REMARK  167  A    between atoms: _385  and  _386
REMARK  168  A    between atoms: _385  and  _388
REMARK  169  A    between atoms: _388  and  _389
REMARK  170  A    between atoms: _394  and  _395
REMARK  171  A    between atoms: _397  and  _399
REMARK  172  A    between atoms: _399  and  _400
REMARK  173  A    between atoms: _399  and  _402
REMARK  174  A    between atoms: _402  and  _403
REMARK  175  A    between atoms: _408  and  _409
REMARK  176  A    between atoms: _411  and  _413
REMARK  177  A    between atoms: _413  and  _414
REMARK  178  A    between atoms: _413  and  _416
REMARK  179  A    between atoms: _419  and  _421
REMARK  180  A    between atoms: _421  and  _422
REMARK  181  A    between atoms: _421  and  _424
REMARK  182  A    between atoms: _424  and  _425
REMARK  183  A    between atoms: _428  and  _430
REMARK  184  A    between atoms: _430  and  _431
REMARK  185  A    between atoms: _430  and  _433
REMARK  186  A    between atoms: _436  and  _438
REMARK  187  A    between atoms: _438  and  _439
REMARK  188  A    between atoms: _438  and  _441
REMARK  189  A    between atoms: _441  and  _442
REMARK  190  A    between atoms: _445  and  _447
REMARK  191  A    between atoms: _447  and  _448
REMARK  192  A    between atoms: _447  and  _450
REMARK  193  A    between atoms: _450  and  _451
REMARK  194  A    between atoms: _454  and  _456
REMARK  195  A    between atoms: _456  and  _457
REMARK  196  A    between atoms: _456  and  _459
REMARK  197  A    between atoms: _459  and  _460
REMARK  198  A    between atoms: _460  and  _461
REMARK  199  A    between atoms: _461  and  _462
REMARK  200  A    between atoms: _462  and  _463
REMARK  201  A    between atoms: _467  and  _469
REMARK  202  A    between atoms: _469  and  _470
REMARK  203  A    between atoms: _469  and  _472
REMARK  204  A    between atoms: _472  and  _473
REMARK  205  A    between atoms: _483  and  _485
REMARK  206  A    between atoms: _485  and  _486
REMARK  207  A    between atoms: _485  and  _488
REMARK  208  A    between atoms: _488  and  _489
REMARK  209  A    between atoms: _489  and  _490
REMARK  210  A    between atoms: _493  and  _495
REMARK  211  A    between atoms: _495  and  _496
REMARK  212  A    between atoms: _495  and  _498
REMARK  213  A    between atoms: _498  and  _499
REMARK  214  A    between atoms: _501  and  _503
REMARK  215  A    between atoms: _503  and  _504
REMARK  216  A    between atoms: _503  and  _506
REMARK  217  A    between atoms: _506  and  _507
REMARK  218  A    between atoms: _513  and  _515
REMARK  219  A    between atoms: _515  and  _516
REMARK  220  A    between atoms: _515  and  _518
REMARK  221  A    between atoms: _518  and  _519
REMARK  222  A    between atoms: _522  and  _524
REMARK  223  A    between atoms: _524  and  _525
REMARK  224  A    between atoms: _524  and  _527
REMARK  225  A    between atoms: _530  and  _532
REMARK  226  A    between atoms: _532  and  _533
REMARK  227  A    between atoms: _535  and  _537
REMARK  228  A    between atoms: _537  and  _538
REMARK  229  A    between atoms: _537  and  _540
REMARK  230  A    between atoms: _540  and  _541
REMARK  231  A    between atoms: _544  and  _546
REMARK  232  A    between atoms: _546  and  _547
REMARK  233  A    between atoms: _546  and  _549
REMARK  234  A    between atoms: _549  and  _550
REMARK  235  A    between atoms: _550  and  _551
REMARK  236  A    between atoms: _551  and  _552
REMARK  237  A    between atoms: _552  and  _553
REMARK  238  A    between atoms: _557  and  _559
REMARK  239  A    between atoms: _559  and  _560
REMARK  240  A    between atoms: _559  and  _562
REMARK                            x       y       z     vdW  Elec       q    Type
REMARK                         _______ _______ _______ _____ _____    ______ ____
ROOT
ATOM      1  O   HOH     1       1.865  -4.378 -17.048  0.00  0.00    +0.000 OA
ENDROOT
TORSDOF 0
